%oldchk=/home/natrosa/MOSSRI/REACAO-1/M06-2X-6-311+G-D/CURCUMIN-OPT-FREQ-Reag-1-M06-2X-6-311+G-D-298.chk
%chk=CURCUMIN-OPT-FREQ-Reag-1-M06-2X-6-311+G-D-363.chk
# opt=(calcfc) freq=noraman M062X/6-311+g(d) scrf=(smd,solvent=generic,read) temperature=363.15 Geom=Check Guess=Read

Reagente 1 

0 2

Eps=7
EpsInf=1.85341
HbondAcidity=0
HbondBasicity=0.48
SurfaceTensionAtInterface=60.62
CarbonAromaticity=0
ElectronegativeHalogenicity=0

