%chk=CURCUMIN-OPT-FREQ-TS-M06-2X-6-311+G-D-298.chk
# opt=(calcfc,noeigen,ts) freq=noraman M062X/6-311+g(d) scrf=(smd,solvent=generic,read) temperature=298.15

TS1 - reacao 1

0 2
 C                  2.18520100    1.31063100    0.44392100
 H                  1.82321300    2.26692800    0.07685800
 C                  1.47421900    0.64399000    1.36515800
 H                  1.80676300   -0.29671500    1.79559600
 C                  0.18979500    1.11925900    1.91821700
 O                 -0.38062800    0.46971500    2.76880300
 C                  3.47364100    0.90522000   -0.10832300
 C                  4.33955400    1.87859700   -0.59657100
 C                  3.98656800   -0.41292600   -0.04238200
 C                  5.62309100    1.57268200   -1.03580500
 H                  4.00221800    2.90858200   -0.62307200
 C                  5.23357400   -0.76356100   -0.57224000
 H                  4.29111429   -0.38457243    1.42610281
 C                  6.07907000    0.25783700   -1.02313500
 H                  6.27298100    2.35897300   -1.40670800
 O                  7.29590500   -0.11949100   -1.45993700
 H                  7.79008100    0.64868600   -1.77564500
 O                  5.60182600   -2.06211300   -0.63994200
 C                  6.45476400   -2.47340500    0.43955800
 H                  5.93949200   -2.34508600    1.39402300
 H                  6.66555000   -3.52730200    0.27325300
 H                  7.38470200   -1.90228100    0.42888700
 C                 -2.90055400    0.97702600    0.68038100
 H                 -2.54537900    0.99695500    1.70793800
 C                 -2.18827900    1.60458500   -0.26922600
 H                 -2.49166500    1.59970900   -1.31181200
 C                 -0.93621500    2.33385600   -0.01703100
 O                 -0.33213700    2.85625400   -0.93211300
 C                 -4.13861400    0.22650000    0.48075000
 C                 -4.72329100   -0.41298700    1.57644600
 C                 -4.77270100    0.12041000   -0.76783800
 C                 -5.89599400   -1.14445800    1.43699600
 H                 -4.24985100   -0.34491200    2.55010500
 C                 -5.93685200   -0.60538300   -0.91949000
 H                 -4.36176900    0.59523600   -1.65203800
 C                 -6.51005400   -1.24955400    0.19398300
 H                 -6.33578600   -1.64474300    2.29460000
 O                 -7.64404400   -1.95426900   -0.01706800
 H                 -7.93773300   -2.35866700    0.80952800
 O                 -6.51082600   -0.72678600   -2.15155100
 C                 -7.69899800    0.04791500   -2.30853700
 H                 -7.47525800    1.11350800   -2.20136900
 H                 -8.06510100   -0.14692200   -3.31508500
 H                 -8.45944500   -0.24441900   -1.58190100
 C                 -0.40073900    2.43167300    1.41218700
 H                 -1.19710500    2.71410100    2.10032500
 H                  0.35940600    3.21318100    1.41647200
 O                  3.26905389   -2.38532067    0.98106441
 O                  2.15678789   -1.64004467   -0.69967959
 N                  3.05225389   -1.57663367    0.10875241

Eps=7
EpsInf=1.85341
HbondAcidity=0
HbondBasicity=0.48	
SurfaceTensionAtInterface=60.62
CarbonAromaticity=0
ElectronegativeHalogenicity=0

