50
Coordinates from ORCA-job CURCUMIN-OPT-FREQ-Prod-1-wB97XM-V-6-311+G-D-363 E -1468.473365851429
  C       1.868737      1.485878      1.561272
  H       1.706137      2.549130      1.716787
  C       1.166009      0.586986      2.258744
  H       1.366246     -0.479103      2.188541
  C       0.094990      0.944882      3.214644
  O      -0.306897      0.119149      4.015520
  C       2.923725      1.152832      0.589233
  C       4.089871      1.916285      0.538369
  C       2.848711      0.078698     -0.299245
  C       5.125458      1.603960     -0.331922
  H       4.191417      2.765281      1.205776
  C       3.855963     -0.259885     -1.189454
  H       4.779661     -1.557943      2.828665
  C       5.019424      0.522285     -1.199862
  H       6.023379      2.214134     -0.352269
  O       5.972191      0.179758     -2.099162
  H       6.724626      0.783385     -2.050489
  O       3.659502     -1.262871     -2.089441
  C       4.402952     -2.463166     -1.798447
  H       4.091552     -2.864773     -0.832298
  H       4.156597     -3.166343     -2.590421
  H       5.474185     -2.258855     -1.800602
  C      -2.513358      0.921818      1.480570
  H      -2.390689      0.659097      2.528913
  C      -1.855768      1.984955      0.991184
  H      -1.974719      2.311800     -0.037784
  C      -0.935903      2.811675      1.785294
  O      -0.506030      3.864282      1.337691
  C      -3.426128      0.045340      0.742773
  C      -4.097039     -0.964615      1.436282
  C      -3.650772      0.169657     -0.636424
  C      -4.968273     -1.826840      0.781815
  H      -3.933664     -1.082082      2.503131
  C      -4.513371     -0.683197     -1.296197
  H      -3.147272      0.927860     -1.227297
  C      -5.180357     -1.696097     -0.586171
  H      -5.479938     -2.613242      1.329412
  O      -6.001231     -2.513445     -1.295027
  H      -6.406739     -3.170258     -0.714911
  O      -4.677333     -0.573997     -2.655942
  C      -5.915744      0.042999     -3.030651
  H      -5.958515      1.065823     -2.645604
  H      -5.935869      0.059289     -4.118620
  H      -6.765275     -0.531348     -2.655577
  C      -0.503892      2.343695      3.172722
  H      -1.356976      2.356442      3.855619
  H       0.232006      3.063031      3.542631
  O       1.681591     -1.895526     -0.045700
  O       0.617636     -0.184358     -0.815028
  N       1.617459     -0.730901     -0.392456
50
Coordinates from ORCA-job CURCUMIN-OPT-FREQ-Prod-1-wB97XM-V-6-311+G-D-363 E -1468.473373696052
  C       1.880439      1.477995      1.551642
  H       1.713581      2.540557      1.707781
  C       1.173797      0.576388      2.241694
  H       1.377192     -0.489187      2.172278
  C       0.094260      0.931918      3.188780
  O      -0.310873      0.106577      3.988427
  C       2.946315      1.150270      0.589615
  C       4.110120      1.918009      0.552886
  C       2.884388      0.078393     -0.302726
  C       5.155749      1.611984     -0.307466
  H       4.201680      2.765492      1.223593
  C       3.901990     -0.253959     -1.183553
  H       4.789506     -1.560342      2.840756
  C       5.062553      0.532825     -1.179802
  H       6.051197      2.225748     -0.316592
  O       6.026181      0.197750     -2.070178
  H       6.774715      0.805393     -2.011004
  O       3.718145     -1.254863     -2.088634
  C       4.462224     -2.453812     -1.793825
  H       4.142053     -2.859958     -0.832445
  H       4.226702     -3.154973     -2.590860
  H       5.532695     -2.245970     -1.783853
  C      -2.524436      0.910631      1.464459
  H      -2.396518      0.650545      2.512741
  C      -1.863804      1.968379      0.967448
  H      -1.987665      2.293076     -0.061591
  C      -0.936852      2.794070      1.754460
  O      -0.505110      3.843702      1.301685
  C      -3.449911      0.039145      0.736830
  C      -4.124100     -0.962199      1.439566
  C      -3.686019      0.161772     -0.640571
  C      -5.009564     -1.817946      0.795794
  H      -3.952519     -1.077613      2.505316
  C      -4.563212     -0.684400     -1.289667
  H      -3.181433      0.913980     -1.238127
  C      -5.233353     -1.688775     -0.570562
  H      -5.523838     -2.597536      1.350536
  O      -6.069451     -2.499221     -1.269560
  H      -6.476197     -3.150461     -0.684244
  O      -4.739953     -0.576652     -2.647930
  C      -5.975409      0.052971     -3.011233
  H      -6.002740      1.077300     -2.628862
  H      -6.007034      0.066353     -4.098935
  H      -6.827210     -0.510712     -2.625366
  C      -0.504193      2.330660      3.143171
  H      -1.357151      2.345737      3.826131
  H       0.231984      3.050767      3.510735
  O       1.722188     -1.901012     -0.066836
  O       0.659870     -0.191632     -0.842450
  N       1.657297     -0.735602     -0.410862
50
Coordinates from ORCA-job CURCUMIN-OPT-FREQ-Prod-1-wB97XM-V-6-311+G-D-363 E -1468.473373820786
  C       1.889013      1.472045      1.549333
  H       1.721675      2.534053      1.708962
  C       1.177413      0.568571      2.231931
  H       1.379870     -0.497064      2.160280
  C       0.093580      0.924123      3.173937
  O      -0.321678      0.097096      3.966593
  C       2.962120      1.148767      0.593842
  C       4.125862      1.917059      0.570474
  C       2.907492      0.082183     -0.305271
  C       5.178189      1.616583     -0.283608
  H       4.211942      2.760658      1.246716
  C       3.931778     -0.244424     -1.180530
  H       4.790100     -1.574737      2.843088
  C       5.091767      0.543187     -1.163636
  H       6.072885      2.231256     -0.281843
  O       6.062357      0.215465     -2.049165
  H       6.808694      0.824818     -1.979948
  O       3.754782     -1.239588     -2.093371
  C       4.496472     -2.440537     -1.800953
  H       4.168754     -2.853861     -0.845190
  H       4.267822     -3.135942     -2.604988
  H       5.566752     -2.232492     -1.780673
  C      -2.530084      0.901756      1.452826
  H      -2.402721      0.648174      2.502638
  C      -1.862385      1.951201      0.947545
  H      -1.984639      2.269413     -0.083694
  C      -0.933206      2.778968      1.729898
  O      -0.490893      3.819924      1.267478
  C      -3.465228      0.033399      0.734077
  C      -4.147688     -0.955119      1.446909
  C      -3.705342      0.148627     -0.643241
  C      -5.045242     -1.805660      0.813114
  H      -3.973560     -1.064105      2.512894
  C      -4.594819     -0.692336     -1.282414
  H      -3.195292      0.891157     -1.248188
  C      -5.273369     -1.683779     -0.553281
  H      -5.565982     -2.575100      1.375802
  O      -6.122042     -2.488972     -1.243223
  H      -6.534243     -3.131386     -0.652109
  O      -4.776823     -0.592089     -2.640576
  C      -6.005597      0.051441     -3.002146
  H      -6.016771      1.079111     -2.628058
  H      -6.043258      0.056448     -4.089699
  H      -6.862872     -0.497220     -2.606903
  C      -0.504148      2.322713      3.122039
  H      -1.358808      2.341282      3.802703
  H       0.231457      3.043979      3.488054
  O       1.745006     -1.899427     -0.089789
  O       0.687264     -0.186062     -0.862861
  N       1.681917     -0.731997     -0.427187
50
Coordinates from ORCA-job CURCUMIN-OPT-FREQ-Prod-1-wB97XM-V-6-311+G-D-363 E -1468.473378176001
  C       1.886719      1.472044      1.550254
  H       1.718418      2.534036      1.708447
  C       1.176957      0.568696      2.234957
  H       1.380364     -0.496787      2.164185
  C       0.093788      0.924124      3.177876
  O      -0.318938      0.097739      3.972487
  C       2.958138      1.148478      0.593064
  C       4.121246      1.917664      0.566008
  C       2.902460      0.080523     -0.304169
  C       5.171996      1.616654     -0.289945
  H       4.208118      2.762390      1.240767
  C       3.924980     -0.246565     -1.181240
  H       4.793063     -1.569976      2.842239
  C       5.084349      0.541789     -1.168229
  H       6.066316      2.232069     -0.290996
  O       6.052889      0.212892     -2.055713
  H       6.799284      0.822442     -1.989709
  O       3.746858     -1.243181     -2.092189
  C       4.490627     -2.442815     -1.799781
  H       4.165319     -2.855308     -0.842845
  H       4.261192     -3.139516     -2.602470
  H       5.560739     -2.233469     -1.781934
  C      -2.530182      0.904899      1.455981
  H      -2.402586      0.649542      2.505356
  C      -1.862081      1.954773      0.952113
  H      -1.983898      2.274076     -0.078864
  C      -0.931339      2.780258      1.734991
  O      -0.491796      3.823655      1.275494
  C      -3.463591      0.036232      0.735262
  C      -4.144991     -0.954458      1.446108
  C      -3.701872      0.152139     -0.642339
  C      -5.039895     -1.806203      0.810210
  H      -3.971844     -1.064448      2.512173
  C      -4.588373     -0.690326     -1.283668
  H      -3.191931      0.895806     -1.245986
  C      -5.265996     -1.683802     -0.556426
  H      -5.559677     -2.577402      1.371407
  O      -6.111361     -2.490700     -1.248388
  H      -6.523056     -3.134600     -0.658394
  O      -4.767752     -0.589994     -2.642183
  C      -5.997030      0.051236     -3.006064
  H      -6.010960      1.078792     -2.631700
  H      -6.032533      0.056456     -4.093711
  H      -6.854024     -0.499243     -2.612661
  C      -0.503663      2.323047      3.127374
  H      -1.358678      2.340987      3.807619
  H       0.231754      3.044006      3.494487
  O       1.742331     -1.901755     -0.082996
  O       0.681081     -0.190441     -0.855749
  N       1.677335     -0.734896     -0.421923
50
Coordinates from ORCA-job CURCUMIN-OPT-FREQ-Prod-1-wB97XM-V-6-311+G-D-363 E -1468.473378602439
  C       1.882654      1.474575      1.553544
  H       1.716260      2.536844      1.711412
  C       1.173071      0.572465      2.240095
  H       1.374902     -0.493280      2.169022
  C       0.091917      0.929059      3.185071
  O      -0.318158      0.103580      3.981957
  C       2.950479      1.148806      0.593121
  C       4.114806      1.916039      0.561467
  C       2.890011      0.080239     -0.302955
  C       5.162128      1.612541     -0.297883
  H       4.205406      2.761191      1.235224
  C       3.908861     -0.249198     -1.183365
  H       4.788265     -1.570659      2.837887
  C       5.069549      0.537091     -1.175052
  H       6.057556      2.226445     -0.302408
  O       6.034157      0.205333     -2.065849
  H       6.782186      0.813228     -2.003542
  O       3.726049     -1.246200     -2.092901
  C       4.469392     -2.446537     -1.802368
  H       4.146575     -2.858223     -0.844250
  H       4.236619     -3.143324     -2.604027
  H       5.539823     -2.238485     -1.787977
  C      -2.527896      0.911017      1.462636
  H      -2.401455      0.654077      2.511809
  C      -1.861636      1.963432      0.961698
  H      -1.982148      2.283694     -0.069152
  C      -0.932809      2.788986      1.746725
  O      -0.493224      3.832912      1.288488
  C      -3.456097      0.039983      0.737952
  C      -4.134843     -0.955279      1.444957
  C      -3.690469      0.156815     -0.640254
  C      -5.023289     -1.810546      0.804742
  H      -3.964361     -1.066398      2.511349
  C      -4.570329     -0.689294     -1.285881
  H      -3.181915      0.903671     -1.241146
  C      -5.245306     -1.687333     -0.562447
  H      -5.540893     -2.585354      1.363016
  O      -6.083936     -2.497731     -1.258432
  H      -6.494265     -3.144652     -0.670729
  O      -4.745219     -0.588267     -2.644939
  C      -5.976392      0.047144     -3.012548
  H      -5.996893      1.074196     -2.637075
  H      -6.008043      0.053394     -4.100324
  H      -6.831975     -0.508168     -2.622809
  C      -0.503592      2.329186      3.137915
  H      -1.357489      2.346897      3.819541
  H       0.233076      3.048869      3.505131
  O       1.727826     -1.900126     -0.076263
  O       0.666127     -0.187712     -0.845959
  N       1.663217     -0.733383     -0.415634
50
Coordinates from ORCA-job CURCUMIN-OPT-FREQ-Prod-1-wB97XM-V-6-311+G-D-363 E -1468.473379040334
  C       1.882988      1.476710      1.557079
  H       1.719234      2.539220      1.716100
  C       1.171565      0.575594      2.243036
  H       1.370818     -0.490559      2.170703
  C       0.091430      0.933598      3.188685
  O      -0.320753      0.107837      3.984173
  C       2.949198      1.149421      0.595358
  C       4.115365      1.913862      0.563410
  C       2.885228      0.082108     -0.301967
  C       5.161026      1.608908     -0.297443
  H       4.208732      2.757988      1.238071
  C       3.902281     -0.248638     -1.183971
  H       4.782638     -1.577060      2.834670
  C       5.064839      0.534891     -1.175962
  H       6.057873      2.220705     -0.302036
  O       6.027618      0.202037     -2.068333
  H       6.777079      0.808202     -2.006200
  O       3.716059     -1.243987     -2.094629
  C       4.456998     -2.446437     -1.806742
  H       4.133959     -2.859143     -0.849136
  H       4.222184     -3.141302     -2.609476
  H       5.527884     -2.240768     -1.792723
  C      -2.525567      0.912588      1.463871
  H      -2.399739      0.655889      2.513176
  C      -1.860407      1.965915      0.963401
  H      -1.980687      2.285945     -0.067543
  C      -0.932640      2.792413      1.748700
  O      -0.494705      3.837213      1.290858
  C      -3.451872      0.040221      0.738350
  C      -4.129568     -0.956274      1.444626
  C      -3.685116      0.156731     -0.640074
  C      -5.015823     -1.813121      0.803478
  H      -3.959951     -1.067158      2.511178
  C      -4.562791     -0.690934     -1.286608
  H      -3.177333      0.904567     -1.240405
  C      -5.236728     -1.690207     -0.563918
  H      -5.532622     -2.588838      1.361239
  O      -6.073373     -2.501881     -1.260768
  H      -6.483223     -3.149518     -0.673550
  O      -4.736640     -0.590153     -2.645828
  C      -5.968417      0.043499     -3.014431
  H      -5.990619      1.070587     -2.639162
  H      -5.999343      0.049491     -4.102227
  H      -6.823501     -0.512925     -2.625168
  C      -0.504219      2.333712      3.140550
  H      -1.358506      2.351485      3.821680
  H       0.232039      3.053804      3.507725
  O       1.718931     -1.895967     -0.076574
  O       0.660005     -0.180117     -0.842450
  N       1.656449     -0.728596     -0.414206
50
Coordinates from ORCA-job CURCUMIN-OPT-FREQ-Prod-1-wB97XM-V-6-311+G-D-363 E -1468.473379929186
  C       1.886804      1.474214      1.556597
  H       1.721964      2.536529      1.716268
  C       1.174588      0.572238      2.240567
  H       1.374416     -0.493811      2.168044
  C       0.092601      0.929710      3.184183
  O      -0.321632      0.103688      3.978346
  C       2.955401      1.148834      0.596862
  C       4.120931      1.914369      0.568568
  C       2.894298      0.082914     -0.302368
  C       5.168631      1.611860     -0.290623
  H       4.212124      2.757512      1.244736
  C       3.913430     -0.245331     -1.182956
  H       4.786871     -1.579426      2.835458
  C       5.075183      0.539453     -1.171316
  H       6.064737      2.224659     -0.292185
  O       6.040188      0.209625     -2.062370
  H       6.788418      0.817051     -1.997454
  O       3.729837     -1.239162     -2.095835
  C       4.471209     -2.441570     -1.808970
  H       4.146193     -2.857035     -0.853221
  H       4.239214     -3.134682     -2.614033
  H       5.541834     -2.234863     -1.791693
  C      -2.528887      0.908831      1.460190
  H      -2.404532      0.655234      2.510372
  C      -1.860012      1.958322      0.956584
  H      -1.979221      2.275753     -0.075275
  C      -0.930637      2.784951      1.739920
  O      -0.490084      3.827417      1.279286
  C      -3.459040      0.038090      0.737708
  C      -4.141153     -0.952778      1.447635
  C      -3.692576      0.151342     -0.640931
  C      -5.032075     -1.807305      0.809869
  H      -3.971593     -1.060852      2.514473
  C      -4.575015     -0.693958     -1.284085
  H      -3.181794      0.894980     -1.243918
  C      -5.253478     -1.687520     -0.557749
  H      -5.552406     -2.578530      1.370537
  O      -6.095001     -2.496832     -1.251467
  H      -6.507863     -3.140491     -0.662045
  O      -4.749778     -0.596427     -2.643437
  C      -5.978268      0.043270     -3.012558
  H      -5.993839      1.071775     -2.640875
  H      -6.010720      0.045632     -4.100313
  H      -6.836111     -0.506642     -2.620147
  C      -0.503944      2.329246      3.133266
  H      -1.359144      2.347627      3.813231
  H       0.231374      3.050423      3.500053
  O       1.729825     -1.896890     -0.082612
  O       0.670354     -0.180898     -0.847418
  N       1.666652     -0.728989     -0.418310
50
Coordinates from ORCA-job CURCUMIN-OPT-FREQ-Prod-1-wB97XM-V-6-311+G-D-363 E -1468.473380444133
  C       1.888042      1.472535      1.555434
  H       1.722146      2.534735      1.714770
  C       1.175405      0.570207      2.238488
  H       1.375944     -0.495747      2.166521
  C       0.091836      0.927428      3.180377
  O      -0.322872      0.101723      3.974618
  C       2.958295      1.148071      0.597235
  C       4.123200      1.914616      0.570724
  C       2.899312      0.082423     -0.302466
  C       5.172266      1.613382     -0.287248
  H       4.212785      2.757611      1.247290
  C       3.919831     -0.244514     -1.181944
  H       4.789216     -1.579187      2.836940
  C       5.080849      0.541330     -1.168574
  H       6.067794      2.227036     -0.287330
  O       6.047254      0.212861     -2.058623
  H       6.794700      0.821115     -1.992556
  O       3.738173     -1.237986     -2.095594
  C       4.480319     -2.439900     -1.808730
  H       4.154089     -2.856768     -0.854006
  H       4.250477     -3.132380     -2.614954
  H       5.550701     -2.232097     -1.789375
  C      -2.530476      0.907418      1.457828
  H      -2.405523      0.654443      2.508106
  C      -1.860663      1.955658      0.952882
  H      -1.980052      2.272340     -0.079190
  C      -0.930288      2.782097      1.735186
  O      -0.488118      3.823284      1.273220
  C      -3.462493      0.037399      0.736885
  C      -4.145273     -0.951962      1.448271
  C      -3.697502      0.150115     -0.641551
  C      -5.038380     -1.805452      0.812174
  H      -3.974608     -1.059594      2.514979
  C      -4.582144     -0.694149     -1.283039
  H      -3.186328      0.892595     -1.245629
  C      -5.261350     -1.686130     -0.555230
  H      -5.559240     -2.575463      1.374010
  O      -6.105103     -2.494442     -1.247398
  H      -6.518360     -3.137034     -0.657074
  O      -4.758580     -0.597187     -2.642223
  C      -5.986229      0.044897     -3.009986
  H      -5.998954      1.073764     -2.639192
  H      -6.020413      0.046357     -4.097691
  H      -6.844667     -0.502766     -2.615719
  C      -0.504111      2.327183      3.128915
  H      -1.359451      2.346122      3.808679
  H       0.231344      3.048327      3.495478
  O       1.736656     -1.898677     -0.084954
  O       0.676195     -0.183399     -0.850001
  N       1.672623     -0.730676     -0.420147
50
Coordinates from ORCA-job CURCUMIN-OPT-FREQ-Prod-1-wB97XM-V-6-311+G-D-363 E -1468.473363881820
  C       1.906105      1.457381      1.544303
  H       1.732290      2.518286      1.703252
  C       1.186746      0.551043      2.214851
  H       1.392166     -0.514150      2.145235
  C       0.087937      0.904815      3.140331
  O      -0.334975      0.079266      3.930342
  C       2.992909      1.142089      0.601833
  C       4.153387      1.915762      0.596472
  C       2.953520      0.081542     -0.304879
  C       5.216430      1.626477     -0.248366
  H       4.228093      2.755365      1.279021
  C       3.988271     -0.233102     -1.172192
  H       4.808497     -1.585470      2.848817
  C       5.143830      0.560058     -1.138194
  H       6.107680      2.246155     -0.231260
  O       6.124301      0.244103     -2.017437
  H       6.865832      0.857836     -1.937722
  O       3.824916     -1.220654     -2.095621
  C       4.571145     -2.420095     -1.809547
  H       4.231205     -2.850947     -0.865884
  H       4.361276     -3.104596     -2.627944
  H       5.639429     -2.204577     -1.768597
  C      -2.551286      0.893827      1.434829
  H      -2.421033      0.648440      2.486322
  C      -1.870875      1.927951      0.915233
  H      -1.992397      2.236432     -0.119100
  C      -0.928738      2.751806      1.685837
  O      -0.473453      3.781475      1.211051
  C      -3.502537      0.031274      0.730315
  C      -4.193109     -0.941084      1.457464
  C      -3.751085      0.136445     -0.646367
  C      -5.107555     -1.784714      0.838816
  H      -4.012268     -1.042665      2.523110
  C      -4.657195     -0.698029     -1.270474
  H      -3.234951      0.865654     -1.262260
  C      -5.344590     -1.672524     -0.526810
  H      -5.634385     -2.541275      1.413144
  O      -6.209926     -2.471693     -1.202712
  H      -6.627625     -3.102345     -0.602604
  O      -4.848695     -0.609158     -2.628226
  C      -6.067497      0.055230     -2.985525
  H      -6.053227      1.087853     -2.625314
  H      -6.117288      0.046339     -4.072601
  H      -6.931681     -0.469934     -2.573451
  C      -0.505661      2.305368      3.083122
  H      -1.362091      2.328173      3.761283
  H       0.229785      3.027730      3.447113
  O       1.803189     -1.909398     -0.115675
  O       0.739027     -0.196627     -0.881208
  N       1.734429     -0.739577     -0.443536
50
Coordinates from ORCA-job CURCUMIN-OPT-FREQ-Prod-1-wB97XM-V-6-311+G-D-363 E -1468.473380284867
  C       1.892358      1.469699      1.553606
  H       1.724985      2.531667      1.712694
  C       1.178007      0.566714      2.233989
  H       1.379364     -0.499123      2.162597
  C       0.091055      0.923235      3.172314
  O      -0.325547      0.097367      3.965376
  C       2.965867      1.146832      0.598528
  C       4.130108      1.914542      0.576087
  C       2.910408      0.082239     -0.302605
  C       5.181778      1.615494     -0.279494
  H       4.217035      2.756823      1.253890
  C       3.933547     -0.242399     -1.179885
  H       4.793300     -1.580707      2.838801
  C       5.093699      0.544573     -1.162558
  H       6.076681      2.230098     -0.276270
  O       6.062589      0.218141     -2.050693
  H       6.809270      0.827036     -1.982213
  O       3.755133     -1.234536     -2.095596
  C       4.498074     -2.436084     -1.809389
  H       4.168873     -2.856205     -0.857122
  H       4.272331     -3.126587     -2.618465
  H       5.568075     -2.226769     -1.785443
  C      -2.535894      0.905967      1.453725
  H      -2.409892      0.654416      2.504222
  C      -1.863633      1.951229      0.945869
  H      -1.983264      2.266220     -0.086702
  C      -0.930318      2.776667      1.725688
  O      -0.485207      3.815428      1.261117
  C      -3.471492      0.037260      0.735833
  C      -4.155132     -0.949495      1.450014
  C      -3.709230      0.148652     -0.642261
  C      -5.051642     -1.801728      0.817037
  H      -3.982361     -1.056160      2.516490
  C      -4.597270     -0.694390     -1.280638
  H      -3.197566      0.889045     -1.248481
  C      -5.277243     -1.683802     -0.550037
  H      -5.573011     -2.569762      1.381095
  O      -6.124276     -2.491139     -1.239305
  H      -6.537811     -3.131962     -0.647216
  O      -4.776536     -0.598988     -2.639574
  C      -6.003091      0.046329     -3.005290
  H      -6.011578      1.075920     -2.636370
  H      -6.040220      0.045858     -4.092905
  H      -6.862210     -0.497878     -2.607682
  C      -0.504543      2.323196      3.120044
  H      -1.359986      2.342650      3.799625
  H       0.230863      3.044615      3.486140
  O       1.750052     -1.900708     -0.090727
  O       0.688720     -0.185662     -0.855082
  N       1.685056     -0.732266     -0.424188
50
Coordinates from ORCA-job CURCUMIN-OPT-FREQ-Prod-1-wB97XM-V-6-311+G-D-363 E -1468.473380895917
  C       1.889347      1.471978      1.555998
  H       1.723213      2.534179      1.714910
  C       1.175882      0.569813      2.238393
  H       1.376337     -0.496195      2.166934
  C       0.091099      0.927160      3.178878
  O      -0.324725      0.101393      3.972464
  C       2.960173      1.147536      0.598434
  C       4.125137      1.914036      0.572518
  C       2.901369      0.082274     -0.301709
  C       5.174378      1.613201     -0.285411
  H       4.214603      2.756752      1.249453
  C       3.922013     -0.244168     -1.181205
  H       4.790174     -1.580033      2.836225
  C       5.083046      0.541583     -1.167305
  H       6.069969      2.226795     -0.284982
  O       6.049390      0.213285     -2.057504
  H       6.797045      0.821258     -1.991406
  O       3.740385     -1.236976     -2.095558
  C       4.482787     -2.439021     -1.809963
  H       4.155559     -2.857741     -0.856396
  H       4.254203     -3.130159     -2.617698
  H       5.553060     -2.230841     -1.788993
  C      -2.532103      0.908288      1.457112
  H      -2.407100      0.655790      2.507498
  C      -1.861417      1.955627      0.951445
  H      -1.980449      2.271637     -0.080883
  C      -0.930077      2.781561      1.733105
  O      -0.486595      3.821822      1.270324
  C      -3.464546      0.038281      0.736680
  C      -4.146764     -0.951211      1.448417
  C      -3.700209      0.150776     -0.641679
  C      -5.039790     -1.805111      0.812764
  H      -3.975584     -1.058754      2.515058
  C      -4.584753     -0.693909     -1.282719
  H      -3.189489      0.893314     -1.246072
  C      -5.263265     -1.686120     -0.554566
  H      -5.560089     -2.575268      1.374922
  O      -6.106880     -2.494934     -1.246297
  H      -6.519659     -3.137602     -0.655691
  O      -4.761755     -0.597288     -2.641864
  C      -5.989655      0.044574     -3.009159
  H      -6.002247      1.073581     -2.638743
  H      -6.024523      0.045594     -4.096847
  H      -6.847809     -0.503023     -2.614146
  C      -0.504509      2.327131      3.127228
  H      -1.360010      2.346162      3.806758
  H       0.230886      3.048321      3.493821
  O       1.739328     -1.899217     -0.085508
  O       0.678078     -0.183605     -0.848714
  N       1.674820     -0.730966     -0.419732
50
Coordinates from ORCA-job CURCUMIN-OPT-FREQ-Prod-1-wB97XM-V-6-311+G-D-363 E -1468.473380936105
  C       1.887685      1.473529      1.557813
  H       1.722307      2.535898      1.716387
  C       1.174822      0.572014      2.241686
  H       1.374765     -0.494108      2.170484
  C       0.091236      0.929937      3.183339
  O      -0.323763      0.104406      3.977616
  C       2.956664      1.147913      0.598571
  C       4.122070      1.913632      0.570081
  C       2.895496      0.082151     -0.300847
  C       5.169530      1.611601     -0.289596
  H       4.213323      2.756682      1.246363
  C       3.914324     -0.245499     -1.182000
  H       4.788680     -1.579154      2.834089
  C       5.075924      0.539478     -1.170625
  H       6.065577      2.224531     -0.291240
  O       6.040441      0.209939     -2.062321
  H       6.788726      0.817325     -1.997955
  O       3.730388     -1.238734     -2.095423
  C       4.472578     -2.441080     -1.810521
  H       4.146568     -2.859235     -0.856288
  H       4.242324     -3.132401     -2.617627
  H       5.543002     -2.233514     -1.791311
  C      -2.530118      0.909982      1.459584
  H      -2.405903      0.656915      2.509923
  C      -1.860430      1.958656      0.955364
  H      -1.978963      2.275225     -0.076848
  C      -0.930370      2.784964      1.738167
  O      -0.487893      3.826112      1.276405
  C      -3.460277      0.039029      0.737347
  C      -4.141480     -0.952432      1.447312
  C      -3.694431      0.152332     -0.641202
  C      -5.032015     -1.807495      0.809718
  H      -3.971430     -1.060646      2.514067
  C      -4.576466     -0.693497     -1.284172
  H      -3.184371      0.896404     -1.244269
  C      -5.253958     -1.687701     -0.557791
  H      -5.551535     -2.579197      1.370488
  O      -6.095051     -2.497599     -1.251318
  H      -6.507285     -3.141583     -0.661770
  O      -4.751825     -0.595987     -2.643465
  C      -5.980637      0.043482     -3.011899
  H      -5.996096      1.072071     -2.640433
  H      -6.013897      0.045556     -4.099636
  H      -6.838127     -0.506473     -2.618733
  C      -0.504536      2.329878      3.132022
  H      -1.359925      2.348576      3.811709
  H       0.230858      3.051008      3.498762
  O       1.732571     -1.898464     -0.081553
  O       0.671018     -0.182544     -0.843656
  N       1.668182     -0.730323     -0.416211
50
Coordinates from ORCA-job CURCUMIN-OPT-FREQ-Prod-1-wB97XM-V-6-311+G-D-363 E -1468.473381265138
  C       1.888881      1.472555      1.557237
  H       1.722988      2.534855      1.715735
  C       1.175555      0.570829      2.240340
  H       1.375797     -0.495255      2.169383
  C       0.090926      0.928592      3.180849
  O      -0.324807      0.103060      3.974739
  C       2.958937      1.147489      0.599015
  C       4.124095      1.913634      0.571898
  C       2.898984      0.082076     -0.300909
  C       5.172433      1.612371     -0.286976
  H       4.214430      2.756442      1.248605
  C       3.918700     -0.244776     -1.181342
  H       4.789855     -1.579576      2.834598
  C       5.079992      0.540637     -1.168599
  H       6.068246      2.225648     -0.287524
  O       6.045415      0.211913     -2.059615
  H       6.793366      0.819608     -1.994306
  O       3.735873     -1.237564     -2.095466
  C       4.478290     -2.439802     -1.810751
  H       4.151259     -2.859045     -0.857345
  H       4.249420     -3.130461     -2.618817
  H       5.548590     -2.231743     -1.789973
  C      -2.531388      0.909205      1.458031
  H      -2.406833      0.656646      2.508456
  C      -1.860994      1.956969      0.952859
  H      -1.979635      2.272998     -0.079507
  C      -0.930166      2.783098      1.734919
  O      -0.486799      3.823503      1.272341
  C      -3.462785      0.038698      0.736863
  C      -4.144436     -0.951721      1.447854
  C      -3.697879      0.151533     -0.641568
  C      -5.036326     -1.806214      0.811392
  H      -3.973691     -1.059546      2.514537
  C      -4.581286     -0.693724     -1.283408
  H      -3.187559      0.894800     -1.245405
  C      -5.259219     -1.686881     -0.556003
  H      -5.556174     -2.577104      1.372969
  O      -6.101670     -2.496263     -1.248482
  H      -6.514118     -3.139534     -0.658305
  O      -4.757679     -0.596715     -2.642605
  C      -5.986052      0.044031     -3.010279
  H      -5.999911      1.072864     -2.639424
  H      -6.020341      0.045481     -4.097985
  H      -6.843845     -0.504635     -2.615966
  C      -0.504662      2.328589      3.129050
  H      -1.360177      2.347584      3.808561
  H       0.230733      3.049781      3.495651
  O       1.736794     -1.899168     -0.083551
  O       0.675024     -0.183326     -0.845542
  N       1.672123     -0.730881     -0.417639
50
Coordinates from ORCA-job CURCUMIN-OPT-FREQ-Prod-1-wB97XM-V-6-311+G-D-363 E -1468.473381411610
  C       1.888535      1.472598      1.557746
  H       1.722340      2.534952      1.715597
  C       1.175579      0.571129      2.241557
  H       1.376094     -0.494958      2.171374
  C       0.090803      0.929142      3.181787
  O      -0.324951      0.103849      3.975923
  C       2.958346      1.147262      0.599329
  C       4.123313      1.913649      0.571357
  C       2.898177      0.081512     -0.300211
  C       5.171248      1.612344     -0.287983
  H       4.213809      2.756705      1.247732
  C       3.917468     -0.245371     -1.181140
  H       4.790722     -1.578030      2.833849
  C       5.078594      0.540317     -1.169217
  H       6.066947      2.225788     -0.289238
  O       6.043654      0.211593     -2.060611
  H       6.791493      0.819481     -1.995808
  O       3.734307     -1.238364     -2.094958
  C       4.477188     -2.440387     -1.810599
  H       4.150213     -2.860122     -0.857392
  H       4.248674     -3.130841     -2.618942
  H       5.547406     -2.231931     -1.789650
  C      -2.530759      0.909246      1.458025
  H      -2.406250      0.656537      2.508427
  C      -1.860555      1.957248      0.953103
  H      -1.979119      2.273380     -0.079239
  C      -0.930018      2.783493      1.735359
  O      -0.486720      3.823980      1.272893
  C      -3.461867      0.038663      0.736578
  C      -4.143142     -0.952271      1.447212
  C      -3.697106      0.151985     -0.641791
  C      -5.034759     -1.806833      0.810453
  H      -3.972306     -1.060457      2.513843
  C      -4.580267     -0.693307     -1.283919
  H      -3.187117      0.895699     -1.245357
  C      -5.257786     -1.687012     -0.556880
  H      -5.554298     -2.578140      1.371743
  O      -6.099999     -2.496407     -1.249639
  H      -6.512184     -3.140044     -0.659681
  O      -4.756804     -0.595776     -2.643060
  C      -5.985455      0.044653     -3.010364
  H      -5.999687      1.073318     -2.639058
  H      -6.019818      0.046566     -4.098067
  H      -6.843006     -0.504521     -2.616238
  C      -0.504794      2.329103      3.129595
  H      -1.360444      2.348159      3.808935
  H       0.230539      3.050337      3.496238
  O       1.736651     -1.899981     -0.081680
  O       0.673927     -0.184584     -0.843350
  N       1.671462     -0.731791     -0.415997
