50
Coordinates from ORCA-job CURCUMIN-OPT-FREQ-Prod-1-wB97XM-V-6-311+G-D-363 E -1468.473381411610
  C           1.88853476375878      1.47259833997682      1.55774602859001
  H           1.72234046609535      2.53495240795950      1.71559734213467
  C           1.17557919933892      0.57112932973988      2.24155701162546
  H           1.37609364405021     -0.49495832025634      2.17137423066969
  C           0.09080310316794      0.92914188208133      3.18178726468881
  O          -0.32495078344650      0.10384907491033      3.97592304258804
  C           2.95834630406778      1.14726221891151      0.59932878983520
  C           4.12331278812845      1.91364919445772      0.57135694119018
  C           2.89817665013543      0.08151211950081     -0.30021128333145
  C           5.17124819456658      1.61234382586008     -0.28798300888112
  H           4.21380943416344      2.75670480137316      1.24773214019895
  C           3.91746758362302     -0.24537087067183     -1.18113952426729
  H           4.79072153345239     -1.57802980858830      2.83384857901933
  C           5.07859436132108      0.54031704787400     -1.16921676849410
  H           6.06694702388787      2.22578770547214     -0.28923751317626
  O           6.04365374001781      0.21159266069272     -2.06061075741855
  H           6.79149302198205      0.81948127165383     -1.99580811872012
  O           3.73430677887220     -1.23836415496201     -2.09495794735181
  C           4.47718806973177     -2.44038709986510     -1.81059949517479
  H           4.15021297837589     -2.86012230098815     -0.85739151896219
  H           4.24867397418001     -3.13084064015798     -2.61894161722424
  H           5.54740621261153     -2.23193059271340     -1.78965030596679
  C          -2.53075905573548      0.90924648443492      1.45802507973750
  H          -2.40624975810114      0.65653723231184      2.50842692925111
  C          -1.86055531494493      1.95724811388038      0.95310300561551
  H          -1.97911852169159      2.27337975896676     -0.07923884663836
  C          -0.93001795571866      2.78349277533027      1.73535910051271
  O          -0.48672017855935      3.82398042888082      1.27289307107222
  C          -3.46186726076724      0.03866317758489      0.73657779017087
  C          -4.14314236627607     -0.95227096107189      1.44721239405345
  C          -3.69710639537603      0.15198528150692     -0.64179118965496
  C          -5.03475881492863     -1.80683327434430      0.81045276757659
  H          -3.97230644753341     -1.06045721809296      2.51384326264934
  C          -4.58026711992063     -0.69330749109404     -1.28391908261511
  H          -3.18711691387451      0.89569890424523     -1.24535743965040
  C          -5.25778606426126     -1.68701236592684     -0.55687975774771
  H          -5.55429847057515     -2.57813980823946      1.37174315433827
  O          -6.09999857726497     -2.49640691346409     -1.24963855850087
  H          -6.51218393418801     -3.14004400199123     -0.65968056000154
  O          -4.75680437364716     -0.59577586248570     -2.64305992051907
  C          -5.98545478245562      0.04465312697169     -3.01036410118388
  H          -5.99968747978649      1.07331775090709     -2.63905752218205
  H          -6.01981786170207      0.04656551186257     -4.09806745840362
  H          -6.84300582696000     -0.50452137374632     -2.61623759884466
  C          -0.50479393828261      2.32910281118151      3.12959535801220
  H          -1.36044432162958      2.34815932149826      3.80893460005102
  H           0.23053915597844      3.05033675128926      3.49623823117071
  O           1.73665066480307     -1.89998141267163     -0.08167969981336
  O           0.67392708657434     -0.18458374222948     -0.84335008883712
  N           1.67146178474275     -0.73179109775521     -0.41599743119042
