! OptTS NumFreq wb97M-V 6-311G(d) CPCM RIJDX
%maxcore 2000
%cpcm
epsilon 7 # Dielectric constant
refrac 1.85341 # Refractive index
end
%FREQ TEMP 363.15 END

* xyz 0 2
  C   -2.48971688470877      0.37768226797686     -0.27085009533357
  H   -2.06801894493444      0.79462391153286     -1.18311930115652
  C   -1.80794736360245      0.50377390776978      0.87857793854240
  H   -2.18455223650640      0.12108847754994      1.82222826568425
  C   -0.51597619490823      1.18915934693820      0.99088525089131
  O   0.04739188020689      1.32609668632416      2.06287318713304
  C   -3.78794073082547     -0.27056143381060     -0.45290088283715
  C   -4.34952245353979     -0.30379684634216     -1.73085090525175
  C   -4.49562632542596     -0.86791665976984      0.60202351632114
  C   -5.58080743309033     -0.90583437917996     -1.95695357585805
  H   -3.81940301184616      0.15107777026741     -2.56181588163407
  C   -5.72118404735477     -1.46452409553064      0.38949214805940
  H   -4.11011686211344     -0.86969163300300      1.61618005326807
  C   -6.27703248570868     -1.48721423411102     -0.90283449633107
  H   -6.01176452271251     -0.92043785348161     -2.95381150282886
  O   -7.48760954321198     -2.07804691912124     -1.04300806487773
  H   -7.76834006442584     -2.04108231837906     -1.96521645711641
  O   -6.41316629186696     -1.99879751370243      1.44707949871322
  C   -6.39507122624847     -3.43095440292974      1.47481881398130
  H   -5.36703985614664     -3.79731564028833      1.55072568994158
  H   -6.95453701873593     -3.72800655058509      2.35983850430841
  H   -6.87104820439172     -3.84593015896764      0.58422708327671
  C   2.71285002119115      0.32592848023797     -0.02601315525437
  H   1.77388838176193     -0.21101175890753     -0.14948386114024
  C   2.68926500957973      1.66388019364753      0.06235871429466
  H   3.58918405566146      2.25466670181361      0.20627673183842
  C   1.45544622591502      2.46072941026833      0.01580821274657
  O   1.46639683031007      3.66475742824313      0.18183601158917
  C   3.89302856716172     -0.53817973544512      0.03220563692319
  C   3.71865318676229     -1.92145381797370     -0.03609752527015
  C   5.19872153648354     -0.03669949846083      0.14673533306492
  C   4.80601782058433     -2.78466383289386      0.01759369712486
  H   2.71792903457966     -2.33210520898848     -0.12767001498195
  C   6.28564621681804     -0.88508047473327      0.20245216637005
  H   5.39510262316506      1.02883345277787      0.20293797392127
  C   6.09497185634760     -2.27727107605387      0.13882973713011
  H   4.65777643827726     -3.85969168135147     -0.02871600074796
  O   7.20207645240993     -3.05596633083483      0.20879762963437
  H   6.95593529559124     -3.98665277652591      0.14463503378471
  O   7.54785332402579     -0.36862452191128      0.35662563657460
  C   8.32966234901540     -0.41159967545881     -0.84289816908465
  H   7.84610362557659      0.16948211808710     -1.63372014338107
  H   9.29187822772294      0.03467714358109     -0.59880557887797
  H   8.47742861423149     -1.44038339498228     -1.17734438765667
  C   0.14333595798404      1.74327039604245     -0.25453634412465
  H   0.15411002450492      1.06693263550979     -1.11065336577586
  H   -0.60208308588831      2.64426945536665     -0.64378099501687
  O   -1.45381328588877      3.57804378795185     -0.97766959223090
  O   -2.75523479192778      4.80543146098326      0.10563120523494
  N   -1.95010068985829      3.94555939085383      0.22544662641579
*
