50
Coordinates from ORCA-job CURCUMIN-OPT-FREQ-TS2-WB97M-V-6-311G-D-363 E -1468.446334766503
  C          -2.49269387112511      0.39342866612297     -0.29329048779747
  H          -2.08493088053876      0.81643410167668     -1.20914229327393
  C          -1.79820253406779      0.51884728476622      0.84851655223000
  H          -2.16307467247191      0.13139020372870      1.79483734138300
  C          -0.50828184027797      1.20960934663245      0.95124553232666
  O           0.06165070217890      1.34767314810715      2.01970124520222
  C          -3.78982059412214     -0.26159392820313     -0.45961044156307
  C          -4.37586996630954     -0.28378513970363     -1.72672231110289
  C          -4.47265951033925     -0.87688023805156      0.60137507475664
  C          -5.60748649822138     -0.89149746273122     -1.93620263171355
  H          -3.86541057052925      0.18487102380117     -2.56230864829306
  C          -5.69737627031970     -1.48051901092989      0.40522874334728
  H          -4.06760215549381     -0.88852097011772      1.60777369945138
  C          -6.27868977165270     -1.49143517794318     -0.87600889480353
  H          -6.05762541556527     -0.89688723331369     -2.92462648657268
  O          -7.48719245141014     -2.09075690578466     -0.99823080259997
  H          -7.78922732472442     -2.04386949301232     -1.91318129688980
  O          -6.36390104739155     -2.03456742866852      1.46899662280596
  C          -6.32694118870093     -3.46658939952282      1.48040486736299
  H          -5.29328393957607     -3.82027542286209      1.53756914607078
  H          -6.86992687056582     -3.78079168418028      2.36972618151102
  H          -6.81006851810456     -3.87782878971699      0.59188635336782
  C           2.70084118883154      0.33105127766993     -0.06943512767749
  H           1.75979518081027     -0.19956904785844     -0.20348652206771
  C           2.68620649249453      1.66913236968338      0.01847677170679
  H           3.58955044997193      2.25317933263725      0.16818534663867
  C           1.45913442796941      2.47611785348225     -0.03538118098353
  O           1.48101665675667      3.68123605007309      0.12140108880428
  C           3.87454947546473     -0.54080721384275      0.00227829718186
  C           3.69471837439049     -1.92203104642161     -0.08989641295550
  C           5.17946941142462     -0.04829483422450      0.15700349569752
  C           4.77601279779475     -2.79195857200614     -0.02191317341306
  H           2.69445482189013     -2.32591104784248     -0.21156899481681
  C           6.26010548672384     -0.90334705836568      0.22875761549376
  H           5.37974731822357      1.01509357260826      0.23511404315714
  C           6.06407387707304     -2.29351038194030      0.14038394110690
  H           4.62320879755895     -3.86535717565699     -0.08722959345450
  O           7.16514365364787     -3.07872236259598      0.22919730330987
  H           6.91662829492673     -4.00755824390562      0.15082457544664
  O           7.52026370351803     -0.39608464736553      0.42497099873652
  C           8.33275465731597     -0.42031540372963     -0.75443345305007
  H           7.87327487535829      0.17913266134708     -1.54588690995398
  H           9.29083111041939      0.01500181846284     -0.47669998914748
  H           8.48326402177463     -1.44310732099775     -1.10546487037977
  C           0.14068525481896      1.76735688056424     -0.29776267047123
  H           0.13983543469814      1.09564434803876     -1.15752863931496
  H          -0.60450525643030      2.67591212178939     -0.67509451886305
  O          -1.46804934630002      3.61214175392769     -0.96420383400495
  O          -2.73477950298926      4.82060315951225      0.17995238203171
  N          -1.92661646880766      3.95898566686344      0.25987296603661
