50
Coordinates from ORCA-job CURCUMIN-OPT-FREQ-Prod-1-wB97XM-V-6-311G-D-363 E -1468.432809182305
  C       2.133285      1.033765      0.974425
  H       1.732022      2.043476      0.994934
  C       1.444742      0.046899      1.560413
  H       1.801912     -0.977338      1.608778
  C       0.133956      0.239827      2.215695
  O      -0.447452     -0.714015      2.698765
  C       3.436973      0.927970      0.303070
  C       4.267347      2.050074      0.279695
  C       3.949398     -0.223378     -0.302317
  C       5.531154      2.016447     -0.293675
  H       3.913917      2.970439      0.731965
  C       5.196489     -0.293547     -0.897311
  H       4.914922     -0.881054      3.406543
  C       6.006736      0.852109     -0.886566
  H       6.153538      2.906027     -0.295472
  O       7.209904      0.746964     -1.491821
  H       7.686247      1.584501     -1.438164
  O       5.576324     -1.433485     -1.538242
  C       6.571630     -2.193466     -0.827075
  H       6.187126     -2.485588      0.151934
  H       6.758394     -3.078521     -1.430818
  H       7.490374     -1.615682     -0.719282
  C      -2.979057      0.594377      1.025111
  H      -2.621572      0.201779      1.974105
  C      -2.267237      1.549461      0.406892
  H      -2.567831      1.965402     -0.550557
  C      -1.015328      2.113963      0.931287
  O      -0.403510      2.956211      0.296169
  C      -4.217690     -0.019160      0.541354
  C      -4.814374     -1.024417      1.304625
  C      -4.837564      0.360246     -0.659185
  C      -5.986016     -1.643195      0.885757
  H      -4.353182     -1.333551      2.237407
  C      -5.999434     -0.249447     -1.086127
  H      -4.419906      1.134924     -1.293614
  C      -6.585347     -1.266281     -0.310989
  H      -6.437564     -2.429359      1.484152
  O      -7.717972     -1.834755     -0.792528
  H      -8.031236     -2.514612     -0.183964
  O      -6.558638      0.112116     -2.286674
  C      -7.741987      0.906647     -2.146227
  H      -7.518137      1.831508     -1.606335
  H      -8.074225      1.144464     -3.155051
  H      -8.525154      0.353960     -1.623464
  C      -0.478386      1.635360      2.280809
  H      -1.275848      1.602105      3.023600
  H       0.266838      2.363083      2.604264
  O       3.490109     -2.411332      0.253944
  O       2.171650     -1.419875     -1.136825
  N       3.137937     -1.450484     -0.404825
50
Coordinates from ORCA-job CURCUMIN-OPT-FREQ-Prod-1-wB97XM-V-6-311G-D-363 E -1468.432809567766
  C       2.133719      1.033666      0.974160
  H       1.732494      2.043399      0.994457
  C       1.445005      0.046768      1.559882
  H       1.802044     -0.977497      1.608375
  C       0.133907      0.239569      2.214442
  O      -0.447811     -0.714361      2.697015
  C       3.437577      0.927865      0.303151
  C       4.267923      2.049972      0.279927
  C       3.950161     -0.223487     -0.302120
  C       5.531823      2.016384     -0.293208
  H       3.914385      2.970325      0.732142
  C       5.197340     -0.293581     -0.896891
  H       4.915542     -0.880752      3.407074
  C       6.007552      0.852113     -0.886079
  H       6.154191      2.905979     -0.294902
  O       7.210782      0.747024     -1.491169
  H       7.687119      1.584551     -1.437355
  O       5.577324     -1.433477     -1.537785
  C       6.572669     -2.193339     -0.826606
  H       6.188166     -2.485717      0.152332
  H       6.759756     -3.078274     -1.430420
  H       7.491257     -1.615367     -0.718544
  C      -2.979431      0.594313      1.024592
  H      -2.621827      0.201389      1.973409
  C      -2.267765      1.549450      0.406328
  H      -2.568507      1.965652     -0.550967
  C      -1.015660      2.113733      0.930367
  O      -0.404044      2.956150      0.295244
  C      -4.218242     -0.019068      0.541078
  C      -4.814668     -1.024468      1.304353
  C      -4.838483      0.360588     -0.659180
  C      -5.986425     -1.643176      0.885719
  H      -4.353207     -1.333813      2.236931
  C      -6.000483     -0.249040     -1.085859
  H      -4.421088      1.135404     -1.293613
  C      -6.586130     -1.266054     -0.310773
  H      -6.437812     -2.429502      1.484030
  O      -7.718841     -1.834563     -0.792105
  H      -8.031773     -2.514592     -0.183563
  O      -6.560009      0.112759     -2.286186
  C      -7.743547      0.906970     -2.145293
  H      -7.519575      1.832135     -1.605984
  H      -8.076499      1.144199     -3.154018
  H      -8.526166      0.354219     -1.621805
  C      -0.478452      1.635066      2.279727
  H      -1.275808      1.601613      3.022625
  H       0.266741      2.362837      2.603164
  O       3.491240     -2.411413      0.254158
  O       2.172842     -1.420296     -1.136933
  N       3.138969     -1.450698     -0.404736
