#
! Opt NumFreq wb97M-V 6-311G(d) CPCM RIJDX
%maxcore 2000
%cpcm
epsilon 7 # Dielectric constant
refrac 1.85341 # Refractive index
end
%FREQ temp 363.15 #temperature is 363.15K
end

* xyz 0 2
  C   2.13328456888435      1.03376516149699      0.97442491852595
  H   1.73202186852674      2.04347611856952      0.99493445312485
  C   1.44474216344021      0.04689872471734      1.56041304954381
  H   1.80191210798552     -0.97733806173994      1.60877847852471
  C   0.13395577420058      0.23982717797115      2.21569526171852
  O   -0.44745229427806     -0.71401541714883      2.69876469575197
  C   3.43697330579189      0.92797007017432      0.30306975484210
  C   4.26734689078332      2.05007374149701      0.27969545638239
  C   3.94939770416863     -0.22337799984605     -0.30231676303095
  C   5.53115379355278      2.01644749341497     -0.29367475722635
  H   3.91391718916383      2.97043850362382      0.73196497211597
  C   5.19648884955774     -0.29354679819251     -0.89731070583704
  H   4.91492221157434     -0.88105396639306      3.40654324548051
  C   6.00673587143807      0.85210937397192     -0.88656648150719
  H   6.15353756562519      2.90602704130964     -0.29547221844256
  O   7.20990413436430      0.74696383899968     -1.49182104354147
  H   7.68624667751268      1.58450107762807     -1.43816390509286
  O   5.57632400489217     -1.43348509616187     -1.53824201384640
  C   6.57163045881753     -2.19346557114354     -0.82707530341980
  H   6.18712560632003     -2.48558755440537      0.15193449930951
  H   6.75839361746936     -3.07852062832369     -1.43081776538254
  H   7.49037431297766     -1.61568230061224     -0.71928156128938
  C   -2.97905653440652      0.59437669971459      1.02511118362740
  H   -2.62157181379759      0.20177906247640      1.97410514164790
  C   -2.26723724776600      1.54946132327251      0.40689211363671
  H   -2.56783132565268      1.96540205429572     -0.55055712023953
  C   -1.01532789392426      2.11396273681078      0.93128743698124
  O   -0.40350970506820      2.95621060639211      0.29616945496649
  C   -4.21769006655883     -0.01916018182665      0.54135383561727
  C   -4.81437350013277     -1.02441698745892      1.30462498050889
  C   -4.83756392294296      0.36024614100223     -0.65918477801595
  C   -5.98601587512471     -1.64319454744125      0.88575704599798
  H   -4.35318230998840     -1.33355149585662      2.23740705191117
  C   -5.99943360439329     -0.24944725728762     -1.08612743281443
  H   -4.41990649587059      1.13492399900355     -1.29361381098894
  C   -6.58534701084210     -1.26628074782264     -0.31098893541579
  H   -6.43756438442003     -2.42935923862843      1.48415178354748
  O   -7.71797245648622     -1.83475506356064     -0.79252811613541
  H   -8.03123589584197     -2.51461205564681     -0.18396381229722
  O   -6.55863818778111      0.11211556719747     -2.28667411217719
  C   -7.74198673430669      0.90664678412457     -2.14622706678487
  H   -7.51813655064713      1.83150756039032     -1.60633452540310
  H   -8.07422486797041      1.14446388088087     -3.15505058699285
  H   -8.52515431303093      0.35395967712244     -1.62346384114374
  C   -0.47838608862814      1.63535954007311      2.28080943823946
  H   -1.27584791550299      1.60210542546570      3.02359982511088
  H   0.26683751979475      2.36308289044573      2.60426431375487
  O   3.49010910980333     -2.41133221666301      0.25394393805420
  O   2.17165032718523     -1.41987523095179     -1.13682539444256
  N   3.13793736153235     -1.45048385493104     -0.40482527745408
*


