%chk=CURCUMIN-OPT-FREQ-Prod-M06-2X-6-311G-D-363.chk
# opt=(calcfc) freq=noraman M062X/6-311g(d) scrf=(smd,solvent=generic,read) temperature=363.15 SCF=(MaxCycle=500)

XXX

0 2
   C      2.694394    0.351131    0.300052
   H      2.449758    1.168149    0.974142
   C      1.748416   -0.139429   -0.514174
   H      1.970786   -0.925593   -1.229254
   C      0.367286    0.369755   -0.628557
   O     -0.341365    0.013663   -1.564234
   C      4.090140   -0.078229    0.372310
   C      4.967477    0.629169    1.197310
   C      4.595427   -1.165990   -0.357938
   C      6.308472    0.277868    1.286205
   H      4.599818    1.474431    1.769446
   C      5.926399   -1.524099   -0.278876
   H      3.960639   -1.751681   -1.013804
   C      6.799941   -0.793893    0.549935
   H      6.982991    0.843024    1.922341
   O      8.095330   -1.179784    0.575076
   H      8.598310   -0.603227    1.164689
   O      6.398534   -2.559404   -1.031706
   C      6.700356   -3.730889   -0.274411
   H      5.801981   -4.100662    0.228707
   H      7.050846   -4.476750   -0.985651
   H      7.481851   -3.534275    0.461779
   C     -2.887170    0.169572    0.193326
   H     -2.026106   -0.466184    0.383184
   C     -2.687724    1.491776    0.044758
   H     -3.498081    2.190373   -0.135397
   C     -1.377477    2.109598    0.169146
   O     -1.256138    3.334516    0.151973
   C     -4.159692   -0.535854    0.132950
   C     -4.163252   -1.925777    0.285300
   C     -5.388535    0.116644   -0.066480
   C     -5.346794   -2.648853    0.232210
   H     -3.225206   -2.448052    0.440248
   C     -6.570958   -0.591250   -0.123264
   H     -5.447304    1.192068   -0.192299
   C     -6.555830   -1.992463    0.025920
   H     -5.336589   -3.729202    0.342244
   O     -7.742346   -2.630731   -0.051136
   H     -7.613486   -3.582071    0.057815
   O     -7.745879    0.059975   -0.357996
   C     -8.586350    0.160418    0.791814
   H     -8.078620    0.715228    1.586238
   H     -9.474656    0.705746    0.478256
   H     -8.875047   -0.827025    1.156661
   C     -0.140113    1.307538    0.370505
   H      0.449062    1.573141    1.239628
   H      0.340899    3.972819    0.158710
   O      1.306070    4.180036    0.130444
   O      2.952620    3.506381   -0.986472
   N      1.792440    3.381725   -0.854790

Eps=7
EpsInf=1.85341
HbondAcidity=0
HbondBasicity=0.48	
SurfaceTensionAtInterface=60.62
CarbonAromaticity=0
ElectronegativeHalogenicity=0

