%chk=CURCUMIN-OPT-FREQ-Reag-M06-2X-6-311G-D-363.chk
# opt=(calcfc) freq=noraman M062X/6-311g(d) scrf=(smd,solvent=generic,read) temperature=363.15

XXX

0 2
C     -2.772759    0.227727   -0.541623
H     -2.402195    0.686179   -1.455269
C     -1.939301    0.065683    0.497513
H     -2.272950   -0.376351    1.431765
C     -0.518050    0.458945    0.513383
O      0.146135    0.296408    1.516159
C     -4.183364   -0.153964   -0.591200
C     -4.923461    0.149768   -1.736171
C     -4.831739   -0.817637    0.463045
C     -6.269819   -0.180005   -1.827735
H     -4.441461    0.657383   -2.564955
C     -6.169730   -1.148130    0.385433
H     -4.304896   -1.083367    1.372996
C     -6.904559   -0.824126   -0.771631
H     -6.836730    0.070627   -2.719434
O     -8.214163   -1.157991   -0.784692
H     -8.614834   -0.884725   -1.620108
O     -6.783341   -1.754670    1.442091
C     -7.084652   -3.132221    1.219957
H     -6.167370   -3.695572    1.024911
H     -7.547783   -3.498355    2.134486
H     -7.778157   -3.254808    0.386083
C      2.901960    0.023760   -0.311251
H      2.070210   -0.666881   -0.428022
C      2.651965    1.340889   -0.288612
H      3.438926    2.073881   -0.138869
C      1.306771    1.923231   -0.395724
O      1.135695    3.113159   -0.210077
C      4.206261   -0.622488   -0.172355
C      4.274932   -2.017048   -0.210145
C      5.401210    0.096705   -0.008053
C      5.489128   -2.679684   -0.079678
H      3.364897   -2.593817   -0.337572
C      6.613315   -0.550105    0.126872
H      5.408889    1.180413    0.030831
C      6.664036   -1.956908    0.093736
H      5.526917   -3.764793   -0.102921
O      7.876929   -2.534860    0.245828
H      7.788587   -3.496196    0.213909
O      7.752705    0.173299    0.328313
C      8.613999    0.215678   -0.808802
H      8.101503    0.678545   -1.657335
H      9.470193    0.825425   -0.525683
H      8.954166   -0.784549   -1.083486
C      0.108185    1.053337   -0.745032
H      0.367707    0.230654   -1.416889
H     -0.601696    1.690880   -1.270728
O     -1.993892    3.711762   -0.124815
O     -1.108705    3.684428    1.867451
N     -1.402970    3.273244    0.801808

Eps=7
EpsInf=1.85341
HbondAcidity=0
HbondBasicity=0.48	
SurfaceTensionAtInterface=60.62
CarbonAromaticity=0
ElectronegativeHalogenicity=0

