%chk=CURCUMIN-OPT-FREQ-Prod-M06-2X-6-311+G-D-363.chk
# opt=(calcfc) freq=noraman M062X/6-311+g(d) scrf=(smd,solvent=generic,read) temperature=363.15 SCF=(MaxCycle=500)

XXX

0 2
C      2.494073    0.327223    0.415957
H      2.080055    0.695023    1.351750
C      1.795146    0.489414   -0.718737
H      2.161523    0.121956   -1.672430
C      0.461436    1.112606   -0.803280
O     -0.189113    1.048925   -1.842403
C      3.794552   -0.326699    0.556590
C      4.387942   -0.374913    1.821197
C      4.476279   -0.915531   -0.520458
C      5.623927   -0.979850    2.011379
H      3.880254    0.073286    2.668913
C      5.704949   -1.521192   -0.343137
H      4.064270   -0.908916   -1.523609
C      6.292861   -1.552554    0.935439
H      6.078818   -1.000043    2.997249
O      7.504791   -2.143363    1.045016
H      7.817723   -2.100857    1.958582
O      6.366916   -2.046523   -1.414673
C      6.364926   -3.473760   -1.449413
H      5.340059   -3.847950   -1.528736
H      6.927693   -3.763477   -2.335066
H      6.843705   -3.888865   -0.560567
C     -2.591465    0.288998    0.154277
H     -1.628376   -0.214043    0.212924
C     -2.622500    1.634216    0.195210
H     -3.549532    2.196485    0.150783
C     -1.425702    2.445140    0.349920
O     -1.507708    3.662863    0.527028
C     -3.737068   -0.603329    0.041000
C     -3.510539   -1.978508   -0.075693
C     -5.064347   -0.141886    0.043797
C     -4.567746   -2.868834   -0.202669
H     -2.493413   -2.355460   -0.078229
C     -6.123532   -1.018485   -0.077020
H     -5.296050    0.913399    0.137781
C     -5.877087   -2.399067   -0.209440
H     -4.381159   -3.933427   -0.307224
O     -6.950890   -3.206864   -0.345715
H     -6.670698   -4.127693   -0.436734
O     -7.402003   -0.544455   -0.115435
C     -8.145179   -0.793681    1.078357
H     -7.675483   -0.288901    1.927512
H     -9.140297   -0.383628    0.915584
H     -8.219814   -1.864176    1.278068
C     -0.069158    1.841357    0.347731
H      0.570604    2.119224    1.176823
H     -0.093734    4.610789    0.442876
O      0.793934    5.028433    0.302128
O      2.401932    4.739348   -1.015957
N      1.324337    4.356623   -0.743171

Eps=7
EpsInf=1.85341
HbondAcidity=0
HbondBasicity=0.48	
SurfaceTensionAtInterface=60.62
CarbonAromaticity=0
ElectronegativeHalogenicity=0

