%chk=CURCUMIN-OPT-FREQ-Prod-1-B3LYP-6-311G-D-298-semH.chk
# opt=(calcfc) freq=noraman b3lyp/6-311g(d) scrf=(smd,solvent=generic,read) temperature=298.15

Reagente 1

0 1
 C                  2.21655900    0.88978800    0.80945900
 H                  1.78896400    1.88775800    0.80674100
 C                  1.50343500   -0.10719400    1.36778200
 H                  1.87234700   -1.12513800    1.43184800
 C                  0.16630600    0.04774100    1.96627300
 O                 -0.41718700   -0.93316200    2.40409300
 C                  3.55115700    0.83508500    0.21412600
 C                  4.28220300    2.03146300    0.14290500
 C                  4.21546300   -0.31361800   -0.25618700
 C                  5.58234700    2.07640800   -0.34008600
 H                  3.81510100    2.94743300    0.48706400
 C                  5.51757700   -0.31078300   -0.74241800
 C                  6.21294300    0.91544300   -0.78315300
 H                  6.11170300    3.02372300   -0.38580500
 O                  7.46582900    0.89253300   -1.29292400
 H                  7.84049600    1.78511200   -1.29035400
 O                  6.04441900   -1.45500000   -1.25354100
 C                  7.12298300   -2.04441100   -0.49597300
 H                  6.79963300   -2.25293100    0.52628600
 H                  7.36083900   -2.97852100   -1.00200900
 H                  7.99831600   -1.39405200   -0.49135300
 C                 -3.12653400    0.50901900    0.91772900
 H                 -2.72914600    0.06289800    1.82503300
 C                 -2.38882600    1.44840900    0.28705500
 H                 -2.72657200    1.90624400   -0.63831500
 C                 -1.07923300    1.93207300    0.72961200
 O                 -0.45670600    2.74076900    0.05264300
 C                 -4.42034200   -0.01755400    0.50622500
 C                 -5.02108400   -1.02106400    1.28282200
 C                 -5.11255000    0.43515200   -0.63456400
 C                 -6.25229300   -1.55949300    0.93095300
 H                 -4.51286500   -1.38944000    2.16799100
 C                 -6.33965800   -0.09156500   -0.99766100
 H                 -4.69605400    1.20724500   -1.27145400
 C                 -6.91972900   -1.11053800   -0.20888200
 H                 -6.69894100   -2.34392700    1.53616300
 O                 -8.11066600   -1.61860500   -0.61448500
 H                 -8.39786600   -2.30864400    0.00014100
 O                 -6.93810300    0.33945600   -2.15191600
 C                 -8.14369200    1.10086600   -1.98134800
 H                 -7.95424000    1.99228200   -1.37445200
 H                 -8.45228700    1.40473600   -2.98123300
 H                 -8.93380900    0.50316600   -1.52333000
 C                 -0.48526500    1.43188400    2.05601500
 H                 -1.25869100    1.36434800    2.82078900
 H                  0.24514600    2.17648800    2.37368500
 O                  3.85626400   -2.50798400    0.40551600
 O                  2.63746700   -1.70336600   -1.19960500
 N                  3.51236900   -1.61381500   -0.35428800

Eps=7
EpsInf=1.85341
HbondAcidity=0
HbondBasicity=0.48
SurfaceTensionAtInterface=60.62
CarbonAromaticity=0
ElectronegativeHalogenicity=0

