50
Coordinates from ORCA-job CURCUMIN-OPT-FREQ-Reag-1-wB97XM-V-6-311+G-D-363 E -1468.537854599761
  C           2.04059539521064      1.09776259677778      1.26242294915055
  H           1.75723417300632      2.13288023479478      1.43229237852974
  C           1.30441926293410      0.10633147619919      1.81512194743834
  H           1.56556028789895     -0.94188669405556      1.70056574002181
  C           0.11048401472374      0.33749773155627      2.63971244437591
  O          -0.42638483941106     -0.59541263957814      3.21866855232330
  C           3.19997210152757      0.91801978599065      0.43228901651195
  C           3.90010584305724      2.01178242495177     -0.04017876425902
  C           3.64004151612253     -0.45819784605067      0.03995770588973
  C           5.03053131148407      1.87811933075936     -0.84364037640979
  H           3.56061984750413      3.00666864806846      0.22958746243569
  C           4.90897426519643     -0.53040365918124     -0.73802316567462
  H           3.67407622475134     -1.15483433466336      0.88157915381055
  C           5.53367762061895      0.59462303739066     -1.18789545626997
  H           5.54590326683985      2.76011042406146     -1.20976357735780
  O           6.64580704260558      0.45040893389318     -1.95828625775208
  H           7.01447446861870      1.31216534096529     -2.18827064052705
  O           5.31188832240885     -1.79282262913727     -1.04219573195879
  C           6.57875879099096     -2.18982289012288     -0.48213161551243
  H           6.54253347982366     -2.10987065675272      0.60682425544703
  H           6.72139358802847     -3.22817586906814     -0.77188871075913
  H           7.38525530379514     -1.57476838598785     -0.87965614939430
  C          -2.81855554034556      0.68737753880255      1.27265822419727
  H          -2.56630053388422      0.31334855902647      2.26177146902604
  C          -2.08792598489435      1.68249432755624      0.74398206132930
  H          -2.30233032952880      2.09532168938169     -0.23765457217442
  C          -0.95262560228699      2.31521380718250      1.42854643973466
  O          -0.39613378789221      3.28576972464623      0.93611034400987
  C          -3.95902630017285      0.01589768797851      0.64472214271482
  C          -4.55783786156234     -1.05650148337967      1.31024511782823
  C          -4.47572191532207      0.39873640606233     -0.60211798249932
  C          -5.63032293473521     -1.73954021671481      0.74958514489750
  H          -4.17512161515917     -1.36791879678016      2.27726071821356
  C          -5.54230213449890     -0.27216671201616     -1.16676575325985
  H          -4.05381318847929      1.22769312833297     -1.16068081036514
  C          -6.12600256854116     -1.35833460424475     -0.49244712041716
  H          -6.08154048698450     -2.57947386180833      1.27004502066295
  O          -7.15734747440702     -1.98992020835190     -1.11000741853477
  H          -7.48534820035126     -2.71500833352990     -0.56332559467816
  O          -5.99965967123613      0.09231354160794     -2.40998786345475
  C          -7.22998874166392      0.82699466836266     -2.36970080286287
  H          -7.09182256157341      1.76305235884692     -1.82115456179715
  H          -7.49467818779726      1.04269004140071     -3.40299350365614
  H          -8.02061210880134      0.23587205563263     -1.90318741524996
  C          -0.46001393014303      1.74756249659995      2.75863372838717
  H          -1.27758484630591      1.70863103662365      3.48050917831812
  H           0.30237943309365      2.42936712031993      3.14058446412923
  O           2.13048896744144     -2.19829583160728     -0.57092839188417
  O           2.17156278896092     -0.45346380084801     -1.83472300435707
  N           2.53583402933469     -1.09489669989393     -0.87126141831742
