50
Coordinates from ORCA-job CURCUMIN-OPT-FREQ-Reag-1-wB97XM-V-6-311G-D-363 E -1468.498422276411
  C       2.094609      1.052945      1.172051
  H       1.699795      2.065664      1.163882
  C       1.367375      0.066321      1.742537
  H       1.705354     -0.964856      1.759976
  C       0.056455      0.272122      2.371584
  O      -0.548347     -0.671317      2.854953
  C       3.379245      0.905213      0.543003
  C       4.043060      2.006387      0.042655
  C       4.023736     -0.440489      0.417525
  C       5.335326      1.923057     -0.478281
  H       3.560230      2.976998      0.094593
  C       5.430127     -0.445939     -0.070328
  H       3.929916     -1.046567      1.321975
  C       6.045413      0.699389     -0.498459
  H       5.830963      2.817872     -0.841002
  O       7.339994      0.641181     -0.919105
  H       7.638001      1.520313     -1.179858
  O       5.943869     -1.694860     -0.063797
  C       6.774263     -2.105009     -1.165772
  H       7.785611     -1.720091     -1.057997
  H       6.776080     -3.192070     -1.134678
  H       6.340717     -1.759255     -2.106033
  C      -3.005428      0.616605      1.086258
  H      -2.679485      0.232543      2.049908
  C      -2.277020      1.570142      0.485658
  H      -2.546111      1.977064     -0.485051
  C      -1.047080      2.146821      1.048968
  O      -0.424228      2.993623      0.430022
  C      -4.222322     -0.007771      0.561745
  C      -4.834293     -1.020142      1.303147
  C      -4.804389      0.366347     -0.659079
  C      -5.983136     -1.652192      0.842676
  H      -4.402546     -1.324935      2.251357
  C      -5.943244     -0.256384     -1.127253
  H      -4.374139      1.147073     -1.277445
  C      -6.543743     -1.281504     -0.374629
  H      -6.446239     -2.444650      1.423817
  O      -7.651105     -1.863377     -0.897759
  H      -7.975710     -2.550884     -0.303976
  O      -6.463882      0.100011     -2.346607
  C      -7.661580      0.879199     -2.247551
  H      -7.467540      1.808320     -1.703489
  H      -7.963486      1.109839     -3.267519
  H      -8.454208      0.317501     -1.749256
  C      -0.547768      1.674619      2.413690
  H      -1.364624      1.650939      3.135718
  H       0.192920      2.400374      2.751581
  O       2.538466     -2.193070     -0.217022
  O       3.325143     -0.952019     -1.792953
  N       3.218557     -1.278112     -0.629574
50
Coordinates from ORCA-job CURCUMIN-OPT-FREQ-Reag-1-wB97XM-V-6-311G-D-363 E -1468.498422474630
  C       2.094476      1.052437      1.171497
  H       1.699458      2.065074      1.163148
  C       1.367487      0.065806      1.742310
  H       1.705622     -0.965307      1.759994
  C       0.056557      0.271610      2.371338
  O      -0.548325     -0.671851      2.854574
  C       3.379099      0.904921      0.542410
  C       4.042493      2.006200      0.041709
  C       4.024194     -0.440535      0.417364
  C       5.334875      1.923298     -0.478970
  H       3.559177      2.976594      0.093250
  C       5.430708     -0.445540     -0.070144
  H       3.930446     -1.046414      1.321955
  C       6.045586      0.699966     -0.498457
  H       5.830182      2.818192     -0.841938
  O       7.340342      0.642388     -0.918656
  H       7.637641      1.521383     -1.180672
  O       5.944716     -1.694354     -0.063056
  C       6.775518     -2.105058     -1.164553
  H       7.786962     -1.720607     -1.056225
  H       6.776801     -3.192120     -1.133216
  H       6.342602     -1.759360     -2.105102
  C      -3.005573      0.616319      1.086181
  H      -2.679530      0.232101      2.049733
  C      -2.277180      1.569888      0.485604
  H      -2.546384      1.976959     -0.485010
  C      -1.047122      2.146440      1.048796
  O      -0.424408      2.993365      0.429870
  C      -4.222588     -0.007864      0.561709
  C      -4.834545     -1.020328      1.303001
  C      -4.804774      0.366541     -0.658969
  C      -5.983498     -1.652198      0.842548
  H      -4.402704     -1.325333      2.251100
  C      -5.943741     -0.256014     -1.127119
  H      -4.374588      1.147348     -1.277278
  C      -6.544223     -1.281237     -0.374619
  H      -6.446595     -2.444729      1.423594
  O      -7.651685     -1.862934     -0.897731
  H      -7.976240     -2.550584     -0.304084
  O      -6.464506      0.100656     -2.346345
  C      -7.662066      0.880015     -2.246951
  H      -7.467817      1.808995     -1.702720
  H      -7.964105      1.110920     -3.266821
  H      -8.454709      0.318348     -1.748644
  C      -0.547685      1.674105      2.413405
  H      -1.364534      1.650416      3.135448
  H       0.193023      2.399813      2.751360
  O       2.538517     -2.192857     -0.216918
  O       3.326647     -0.953168     -1.793192
  N       3.219565     -1.278715     -0.629700
