#
! Opt NumFreq wb97M-V 6-311G(d) CPCM RIJDX
%maxcore 2000
%cpcm
epsilon 7 # Dielectric constant
refrac 1.85341 # Refractive index
end
%FREQ temp 363.15 # temperature is 363.15K
end
* xyz 0 2
  C   2.09460922490118      1.05294543173089      1.17205129121227
  H   1.69979525188080      2.06566426651986      1.16388174998492
  C   1.36737469191119      0.06632081379408      1.74253725776146
  H   1.70535368135118     -0.96485566753158      1.75997615078295
  C   0.05645536368491      0.27212237934461      2.37158408356840
  O   -0.54834707292640     -0.67131731131839      2.85495291962010
  C   3.37924501343935      0.90521253567077      0.54300286337441
  C   4.04305981914180      2.00638653115262      0.04265454930490
  C   4.02373579759157     -0.44048944338526      0.41752531934502
  C   5.33532638523924      1.92305676831821     -0.47828110005308
  H   3.56022950393743      2.97699819079981      0.09459307661257
  C   5.43012674563554     -0.44593865867549     -0.07032820100693
  H   3.92991645611551     -1.04656667365000      1.32197517787288
  C   6.04541303631745      0.69938881908998     -0.49845865874462
  H   5.83096322780771      2.81787209265234     -0.84100179513342
  O   7.33999436170917      0.64118139949942     -0.91910496769037
  H   7.63800056623096      1.52031256572770     -1.17985768489532
  O   5.94386850770564     -1.69486030695001     -0.06379672093936
  C   6.77426276832118     -2.10500938751541     -1.16577193034660
  H   7.78561117464794     -1.72009111487503     -1.05799691931160
  H   6.77608014137567     -3.19207042099708     -1.13467825762712
  H   6.34071681132708     -1.75925528217092     -2.10603327083398
  C   -3.00542777442964      0.61660538246061      1.08625834292101
  H   -2.67948518763023      0.23254283238649      2.04990813161344
  C   -2.27702004723075      1.57014222212635      0.48565804519409
  H   -2.54611109771853      1.97706434781906     -0.48505147295961
  C   -1.04708016006665      2.14682132060840      1.04896834172290
  O   -0.42422825034413      2.99362310862887      0.43002243958098
  C   -4.22232196535333     -0.00777063560887      0.56174536090884
  C   -4.83429324130440     -1.02014223765354      1.30314689304283
  C   -4.80438882381084      0.36634712388610     -0.65907895191022
  C   -5.98313644443146     -1.65219213457836      0.84267599690926
  H   -4.40254642365055     -1.32493542986030      2.25135731626630
  C   -5.94324438613957     -0.25638368975490     -1.12725265356720
  H   -4.37413890111647      1.14707337625080     -1.27744544412337
  C   -6.54374281486632     -1.28150393575844     -0.37462904244512
  H   -6.44623902482692     -2.44464989213642      1.42381667280715
  O   -7.65110456335427     -1.86337669249890     -0.89775863622337
  H   -7.97570965300170     -2.55088384901193     -0.30397562428889
  O   -6.46388243336026      0.10001061718327     -2.34660742989694
  C   -7.66157970987986      0.87919887997722     -2.24755065017680
  H   -7.46754027627972      1.80832000771759     -1.70348882430418
  H   -7.96348629624043      1.10983905206137     -3.26751946934771
  H   -8.45420755728356      0.31750065332109     -1.74925582563128
  C   -0.54776784941751      1.67461918468407      2.41369040578975
  H   -1.36462442708431      1.65093938237365      3.13571836788051
  H   0.19291966649823      2.40037408787618      2.75158072988723
  O   2.53846609373719     -2.19307026079694     -0.21702205288670
  O   3.32514306716882     -0.95201872085264     -1.79295269044293
  N   3.21855702407101     -1.27811162808101     -0.62957420917745
*

