50
Coordinates from ORCA-job CURCUMIN-OPT-FREQ-Prod-WB97M-V-6-311+G-D-363 E -1468.534009859666
  C      -2.520386      0.317902     -0.336573
  H      -2.114395      0.797210     -1.224664
  C      -1.803985      0.324249      0.797701
  H      -2.161663     -0.157743      1.702918
  C      -0.465782      0.924463      0.941555
  O       0.190320      0.744235      1.972576
  C      -3.837152     -0.293767     -0.537526
  C      -4.438442     -0.193263     -1.794279
  C      -4.524862     -0.978083      0.475796
  C      -5.688782     -0.748060     -2.038878
  H      -3.924699      0.330755     -2.594290
  C      -5.767846     -1.533325      0.242900
  H      -4.108295     -1.087234      1.471749
  C      -6.364092     -1.416657     -1.024144
  H      -6.150056     -0.656452     -3.017980
  O      -7.594569     -1.967829     -1.185815
  H      -7.908423     -1.829728     -2.088403
  O      -6.441349     -2.156134      1.265523
  C      -6.421440     -3.586431      1.170552
  H      -5.392555     -3.953287      1.226260
  H      -6.990562     -3.960115      2.019485
  H      -6.885744     -3.920910      0.240664
  C       2.618895      0.258067     -0.112985
  H       1.660927     -0.242283     -0.240393
  C       2.630856      1.596706      0.020214
  H       3.546984      2.167433      0.135719
  C       1.415121      2.391838     -0.030742
  O       1.461370      3.627844     -0.038365
  C       3.773260     -0.634966     -0.113949
  C       3.557161     -2.010952     -0.230458
  C       5.094169     -0.172316     -0.004004
  C       4.619507     -2.905148     -0.228402
  H       2.543363     -2.389070     -0.318060
  C       6.156857     -1.052676     -0.004161
  H       5.319636      0.885000      0.087723
  C       5.923623     -2.435377     -0.111470
  H       4.441541     -3.973382     -0.310035
  O       7.007660     -3.249224     -0.087090
  H       6.738047     -4.172829     -0.169504
  O       7.437437     -0.581539      0.149275
  C       8.188291     -0.568453     -1.072390
  H       7.713088      0.096607     -1.799032
  H       9.177939     -0.191621     -0.821990
  H       8.272090     -1.574656     -1.487930
  C       0.070823      1.767650     -0.117538
  H      -0.560730      2.135139     -0.918068
  H       0.018224      4.573017      0.129099
  O      -0.851168      5.018459      0.299752
  O      -2.577614      4.592133      1.427823
  N      -1.505254      4.183624      1.148058
50
Coordinates from ORCA-job CURCUMIN-OPT-FREQ-Prod-WB97M-V-6-311+G-D-363 E -1468.534028076262
  C      -2.529356      0.326844     -0.343086
  H      -2.131527      0.811812     -1.231623
  C      -1.803711      0.326587      0.785287
  H      -2.154986     -0.160445      1.690301
  C      -0.463496      0.923974      0.923348
  O       0.197408      0.738602      1.950482
  C      -3.847011     -0.285706     -0.535574
  C      -4.462203     -0.177092     -1.785006
  C      -4.521537     -0.980118      0.479680
  C      -5.713547     -0.734005     -2.020303
  H      -3.958789      0.354703     -2.586409
  C      -5.764683     -1.538396      0.255697
  H      -4.093615     -1.096181      1.469972
  C      -6.375190     -1.413677     -1.003709
  H      -6.185755     -0.636286     -2.993564
  O      -7.605384     -1.968451     -1.155671
  H      -7.930460     -1.824859     -2.053323
  O      -6.424136     -2.172711      1.280423
  C      -6.397353     -3.602190      1.174747
  H      -5.366004     -3.963734      1.217579
  H      -6.955965     -3.985171      2.026492
  H      -6.868982     -3.932523      0.247070
  C       2.618898      0.258214     -0.143173
  H       1.661790     -0.239781     -0.284525
  C       2.631044      1.595711      0.000711
  H       3.546677      2.164836      0.127484
  C       1.415770      2.391642     -0.050184
  O       1.462599      3.627584     -0.053726
  C       3.771756     -0.636633     -0.137558
  C       3.554821     -2.010811     -0.272241
  C       5.091469     -0.177909     -0.000369
  C       4.615222     -2.907233     -0.261859
  H       2.541876     -2.385807     -0.380159
  C       6.152213     -1.060609      0.009143
  H       5.317236      0.877780      0.107767
  C       5.918087     -2.441626     -0.117125
  H       4.436287     -3.974113     -0.357451
  O       6.999860     -3.258064     -0.081112
  H       6.730258     -4.180368     -0.176497
  O       7.430501     -0.594053      0.193171
  C       8.205500     -0.567577     -1.013136
  H       7.746066      0.107338     -1.740771
  H       9.190654     -0.195909     -0.738529
  H       8.295709     -1.568663     -1.439382
  C       0.071044      1.767999     -0.136255
  H      -0.562434      2.138810     -0.933624
  H       0.019849      4.575488      0.115491
  O      -0.848188      5.023607      0.286204
  O      -2.576283      4.604997      1.414368
  N      -1.504658      4.192993      1.136753
50
Coordinates from ORCA-job CURCUMIN-OPT-FREQ-Prod-WB97M-V-6-311+G-D-363 E -1468.534029735440
  C      -2.538508      0.344071     -0.341442
  H      -2.152424      0.841457     -1.228282
  C      -1.799390      0.329575      0.778030
  H      -2.141275     -0.167650      1.681032
  C      -0.456820      0.922969      0.909398
  O       0.209120      0.732108      1.932372
  C      -3.857612     -0.268597     -0.524553
  C      -4.492904     -0.140900     -1.762104
  C      -4.513025     -0.983735      0.488841
  C      -5.745355     -0.699770     -1.987519
  H      -4.004466      0.406936     -2.561925
  C      -5.756602     -1.544556      0.274368
  H      -4.068940     -1.115506      1.469955
  C      -6.387262     -1.401362     -0.972952
  H      -6.233012     -0.587817     -2.951560
  O      -7.615885     -1.962498     -1.114804
  H      -7.956620     -1.807635     -2.004694
  O      -6.396362     -2.201066      1.297584
  C      -6.361854     -3.628246      1.166517
  H      -5.327680     -3.983514      1.188169
  H      -6.905615     -4.029720      2.019343
  H      -6.844669     -3.945556      0.240008
  C       2.620497      0.259876     -0.168080
  H       1.663712     -0.234781     -0.323155
  C       2.633771      1.596095     -0.013737
  H       3.549134      2.163207      0.123597
  C       1.419043      2.392842     -0.065406
  O       1.465756      3.628644     -0.067217
  C       3.771159     -0.637709     -0.157290
  C       3.552916     -2.009511     -0.312505
  C       5.089417     -0.184267      0.008039
  C       4.610741     -2.908907     -0.295213
  H       2.540977     -2.380394     -0.441671
  C       6.147499     -1.070088      0.025587
  H       5.315773      0.869338      0.133742
  C       5.912097     -2.448796     -0.121948
  H       4.430410     -3.973970     -0.407004
  O       6.991145     -3.268405     -0.076963
  H       6.721467     -4.189062     -0.186557
  O       7.423396     -0.609545      0.239159
  C       8.221476     -0.571241     -0.951663
  H       7.778063      0.113573     -1.679944
  H       9.202233     -0.205918     -0.653813
  H       8.316935     -1.567484     -1.387985
  C       0.073959      1.769515     -0.150133
  H      -0.562030      2.142615     -0.944476
  H       0.023611      4.577771      0.099485
  O      -0.845662      5.025995      0.262273
  O      -2.609339      4.581000      1.322793
  N      -1.533658      4.169435      1.060528
50
Coordinates from ORCA-job CURCUMIN-OPT-FREQ-Prod-WB97M-V-6-311+G-D-363 E -1468.534035121248
  C      -2.545708      0.350986     -0.343952
  H      -2.166633      0.855603     -1.229809
  C      -1.799277      0.330070      0.770550
  H      -2.135659     -0.172124      1.672820
  C      -0.456674      0.923769      0.898273
  O       0.210465      0.735138      1.920926
  C      -3.864956     -0.263245     -0.521865
  C      -4.511943     -0.124351     -1.752091
  C      -4.508420     -0.992136      0.489436
  C      -5.764092     -0.685996     -1.972574
  H      -4.032889      0.434198     -2.550162
  C      -5.751548     -1.555718      0.279805
  H      -4.055010     -1.133188      1.464956
  C      -6.393672     -1.402059     -0.960327
  H      -6.260616     -0.565708     -2.931059
  O      -7.620087     -1.969316     -1.097225
  H      -7.969678     -1.808995     -1.982713
  O      -6.379453     -2.226485      1.301105
  C      -6.339054     -3.651886      1.153930
  H      -5.303009     -4.002218      1.163507
  H      -6.874140     -4.065460      2.006465
  H      -6.827586     -3.961273      0.227708
  C       2.618261      0.259229     -0.179301
  H       1.661444     -0.234595     -0.337624
  C       2.631993      1.595520     -0.026324
  H       3.547164      2.162585      0.112489
  C       1.417169      2.391859     -0.082513
  O       1.463203      3.627614     -0.091700
  C       3.768136     -0.639366     -0.163690
  C       3.549875     -2.010676     -0.323256
  C       5.085500     -0.187290      0.011754
  C       4.606917     -2.910943     -0.300470
  H       2.538570     -2.380544     -0.460116
  C       6.142727     -1.074016      0.034898
  H       5.311672      0.865917      0.141036
  C       5.907367     -2.452233     -0.117050
  H       4.426360     -3.975597     -0.415880
  O       6.985618     -3.272572     -0.066372
  H       6.716339     -4.193052     -0.178331
  O       7.417516     -0.614869      0.257807
  C       8.224183     -0.576684     -0.927185
  H       7.786853      0.109096     -1.658228
  H       9.203206     -0.212755     -0.621997
  H       8.321537     -1.572783     -1.363492
  C       0.072412      1.767348     -0.164401
  H      -0.564005      2.135589     -0.960667
  H       0.021637      4.580142      0.067338
  O      -0.843866      5.035693      0.229528
  O      -2.579901      4.645751      1.355287
  N      -1.510904      4.220846      1.086979
50
Coordinates from ORCA-job CURCUMIN-OPT-FREQ-Prod-WB97M-V-6-311+G-D-363 E -1468.534040127189
  C      -2.540192      0.344263     -0.339977
  H      -2.154471      0.843239     -1.226103
  C      -1.801433      0.329584      0.779802
  H      -2.143247     -0.168342      1.682454
  C      -0.460715      0.926490      0.913232
  O       0.202789      0.740345      1.938622
  C      -3.858669     -0.269448     -0.524371
  C      -4.494587     -0.137901     -1.761101
  C      -4.512778     -0.989350      0.486551
  C      -5.746212     -0.697692     -1.988460
  H      -4.007268      0.413948     -2.558865
  C      -5.755873     -1.550673      0.270353
  H      -4.068315     -1.124257      1.467083
  C      -6.386784     -1.404158     -0.976547
  H      -6.234324     -0.582422     -2.951888
  O      -7.614474     -1.966745     -1.120144
  H      -7.955140     -1.810997     -2.009952
  O      -6.395066     -2.211125      1.291415
  C      -6.358213     -3.637831      1.156059
  H      -5.323463     -3.991476      1.177607
  H      -6.902131     -4.042789      2.007158
  H      -6.839631     -3.953047      0.228139
  C       2.618787      0.257301     -0.158656
  H       1.661517     -0.238188     -0.308273
  C       2.632278      1.594272     -0.010925
  H       3.547845      2.162185      0.121533
  C       1.417383      2.390578     -0.067090
  O       1.463698      3.626402     -0.077038
  C       3.769947     -0.639787     -0.148249
  C       3.552339     -2.012436     -0.296747
  C       5.088530     -0.184455      0.008842
  C       4.611152     -2.910760     -0.280638
  H       2.540183     -2.384861     -0.419885
  C       6.147605     -1.069083      0.024356
  H       5.314438      0.869978      0.128231
  C       5.912871     -2.448667     -0.115761
  H       4.431298     -3.976465     -0.387128
  O       6.992928     -3.267040     -0.072295
  H       6.723512     -4.188529     -0.175569
  O       7.424227     -0.606095      0.227875
  C       8.215070     -0.573179     -0.967918
  H       7.766717      0.107588     -1.697006
  H       9.197316     -0.205599     -0.677819
  H       8.308654     -1.571561     -1.399757
  C       0.072467      1.766699     -0.150032
  H      -0.561598      2.133479     -0.948731
  H       0.022179      4.577540      0.081624
  O      -0.844429      5.031435      0.243312
  O      -2.585291      4.629529      1.357538
  N      -1.514085      4.208923      1.091362
50
Coordinates from ORCA-job CURCUMIN-OPT-FREQ-Prod-WB97M-V-6-311+G-D-363 E -1468.534041334132
  C      -2.541644      0.345366     -0.339039
  H      -2.157026      0.845490     -1.224947
  C      -1.801080      0.327948      0.779535
  H      -2.142176     -0.171123      1.681842
  C      -0.459672      0.923501      0.912624
  O       0.202223      0.739712      1.939463
  C      -3.860830     -0.267059     -0.522413
  C      -4.499273     -0.131515     -1.757409
  C      -4.513134     -0.989738      0.487701
  C      -5.751611     -0.690077     -1.983896
  H      -4.013384      0.422570     -2.554496
  C      -5.756861     -1.549945      0.272334
  H      -4.066650     -1.127939      1.466857
  C      -6.390242     -1.399542     -0.972875
  H      -6.241654     -0.571671     -2.945961
  O      -7.618224     -1.961610     -1.115671
  H      -7.960291     -1.804103     -2.004618
  O      -6.394206     -2.213405      1.292602
  C      -6.357351     -3.639713      1.153042
  H      -5.322517     -3.993252      1.172113
  H      -6.900012     -4.047249      2.003713
  H      -6.840018     -3.952280      0.224874
  C       2.620700      0.255998     -0.157476
  H       1.663612     -0.239837     -0.307081
  C       2.633590      1.592974     -0.009584
  H       3.548820      2.161309      0.123315
  C       1.418296      2.388576     -0.066603
  O       1.463768      3.624438     -0.076319
  C       3.772238     -0.640621     -0.147110
  C       3.555328     -2.013307     -0.296141
  C       5.090612     -0.184684      0.010105
  C       4.614611     -2.911085     -0.280499
  H       2.543373     -2.386213     -0.419466
  C       6.150139     -1.068771      0.025250
  H       5.315961      0.869809      0.129975
  C       5.916088     -2.448420     -0.115378
  H       4.435280     -3.976824     -0.387502
  O       6.996550     -3.266270     -0.072365
  H       6.727540     -4.187863     -0.175754
  O       7.426500     -0.605196      0.229059
  C       8.217559     -0.571862     -0.966574
  H       7.769083      0.108807     -1.695682
  H       9.199606     -0.203937     -0.676241
  H       8.311608     -1.570163     -1.398503
  C       0.073788      1.763918     -0.150296
  H      -0.559851      2.130101     -0.949578
  H       0.021778      4.574835      0.080398
  O      -0.845447      5.028674      0.239189
  O      -2.595336      4.620074      1.336715
  N      -1.522820      4.199993      1.074996
50
Coordinates from ORCA-job CURCUMIN-OPT-FREQ-Prod-WB97M-V-6-311+G-D-363 E -1468.534042253069
  C      -2.544470      0.351734     -0.337073
  H      -2.164135      0.857141     -1.221823
  C      -1.799661      0.329279      0.778598
  H      -2.137255     -0.174569      1.679569
  C      -0.458701      0.925993      0.911010
  O       0.204552      0.740927      1.936751
  C      -3.863443     -0.261747     -0.518449
  C      -4.508245     -0.118489     -1.749264
  C      -4.509172     -0.993395      0.489449
  C      -5.760390     -0.678308     -1.973867
  H      -4.027500      0.442593     -2.544568
  C      -5.752565     -1.554967      0.275895
  H      -4.057541     -1.138047      1.465301
  C      -6.392249     -1.397082     -0.965155
  H      -6.255299     -0.554010     -2.932687
  O      -7.619102     -1.961993     -1.106190
  H      -7.965417     -1.800559     -1.992773
  O      -6.383390     -2.227793      1.294071
  C      -6.342653     -3.652906      1.143863
  H      -5.306655     -4.003317      1.156364
  H      -6.880773     -4.068415      1.993560
  H      -6.827907     -3.960115      0.215236
  C       2.620102      0.257030     -0.158831
  H       1.662601     -0.237942     -0.308827
  C       2.633992      1.594067     -0.011570
  H       3.549485      2.161893      0.121632
  C       1.419052      2.390054     -0.069872
  O       1.464716      3.625880     -0.081190
  C       3.770764     -0.640705     -0.147228
  C       3.552773     -2.013092     -0.297292
  C       5.089341     -0.186093      0.012218
  C       4.611200     -2.911864     -0.280633
  H       2.540665     -2.385002     -0.422342
  C       6.147994     -1.071209      0.028625
  H       5.315456      0.868114      0.133112
  C       5.912849     -2.450559     -0.113161
  H       4.430963     -3.977351     -0.388626
  O       6.992500     -3.269422     -0.069204
  H       6.722797     -4.190758     -0.173054
  O       7.424449     -0.608955      0.234826
  C       8.217873     -0.576677     -0.959258
  H       7.771618      0.104430     -1.689315
  H       9.199778     -0.209878     -0.667037
  H       8.311590     -1.575135     -1.390911
  C       0.074387      1.765609     -0.152638
  H      -0.559294      2.130794     -0.952346
  H       0.023420      4.577508      0.072294
  O      -0.843308      5.033555      0.227480
  O      -2.600471      4.627782      1.314344
  N      -1.527975      4.204792      1.057209
50
Coordinates from ORCA-job CURCUMIN-OPT-FREQ-Prod-WB97M-V-6-311+G-D-363 E -1468.534042763508
  C      -2.544726      0.350548     -0.336722
  H      -2.163890      0.855588     -1.221487
  C      -1.800452      0.328170      0.779298
  H      -2.138643     -0.175319      1.680252
  C      -0.459728      0.925166      0.912576
  O       0.202123      0.741896      1.939555
  C      -3.863872     -0.262420     -0.518551
  C      -4.507924     -0.119218     -1.749760
  C      -4.510600     -0.993325      0.489254
  C      -5.760253     -0.678399     -1.974893
  H      -4.026425      0.441351     -2.544971
  C      -5.754266     -1.554114      0.275243
  H      -4.059626     -1.137845      1.465433
  C      -6.393113     -1.396408     -0.966273
  H      -6.254553     -0.554112     -2.934028
  O      -7.620233     -1.960578     -1.107821
  H      -7.965528     -1.799941     -1.994956
  O      -6.386276     -2.225925      1.293361
  C      -6.346085     -3.651152      1.144114
  H      -5.310270     -4.002056      1.157962
  H      -6.885332     -4.065870      1.993486
  H      -6.830481     -3.958694      0.215148
  C       2.621025      0.255664     -0.156830
  H       1.663740     -0.239826     -0.306430
  C       2.634271      1.592756     -0.009854
  H       3.549525      2.161055      0.122963
  C       1.418965      2.388163     -0.068340
  O       1.464107      3.624012     -0.080161
  C       3.772170     -0.641439     -0.145725
  C       3.554852     -2.013979     -0.295312
  C       5.090637     -0.186025      0.012407
  C       4.613825     -2.912121     -0.279485
  H       2.542850     -2.386520     -0.419358
  C       6.149841     -1.070492      0.027880
  H       5.316248      0.868350      0.132819
  C       5.915367     -2.450011     -0.113440
  H       4.434126     -3.977740     -0.387087
  O       6.995514     -3.268267     -0.070417
  H       6.726162     -4.189763     -0.173779
  O       7.426229     -0.607388      0.232579
  C       8.218369     -0.574939     -0.962366
  H       7.770932      0.105737     -1.692104
  H       9.200367     -0.207485     -0.671279
  H       8.312228     -1.573436     -1.393881
  C       0.074571      1.763199     -0.151656
  H      -0.558251      2.127118     -0.952632
  H       0.022669      4.575263      0.071887
  O      -0.843807      5.032213      0.225895
  O      -2.600670      4.630768      1.314871
  N      -1.528368      4.206607      1.058839
