#
! OptTS NumFreq wb97M-V 6-311G(d) CPCM RIJDX
%maxcore 2000
%cpcm
epsilon 7 # Dielectric constant
refrac 1.85341 # Refractive index
end
%FREQ temp 363.15 # temperature is 363.15K
end
* xyz 0 2
  C   2.20309717677694      1.23926016314856      0.62182641734380
  H   1.80627233353302      2.22199070718767      0.38235689407173
  C   1.50187341998622      0.41881691887010      1.41532527164717
  H   1.86232346856918     -0.56255516127361      1.71118641311369
  C   0.17974932011983      0.75213086038670      1.98279298288403
  O   -0.40667697506166     -0.06076617216583      2.67347856844794
  C   3.51961783533454      0.96688935958889      0.04295760422554
  C   4.36279316536076      2.03459127463087     -0.24306527436683
  C   4.06699188316990     -0.32667743253026     -0.12986925163830
  C   5.65653432118542      1.84697015020782     -0.71869429679857
  H   3.99939893258673      3.04376194578283     -0.08171302375049
  C   5.32184467023990     -0.54028828331151     -0.71367858963267
  H   4.50823497285022     -0.58198531733260      1.66871521608362
  C   6.14311732625763      0.56583162630223     -0.95928454539988
  H   6.28908320941853      2.70350474787212     -0.93015833791280
  O   7.36851977631331      0.30728398970277     -1.46465204420659
  H   7.84099394461159      1.13195317354331     -1.63195584731849
  O   5.70969926714770     -1.79806485555850     -1.04556282636303
  C   6.62241536688130     -2.39607335686328     -0.10396687714921
  H   6.13752602516283     -2.50023837553349      0.86844231898911
  H   6.86349354606496     -3.37740270901389     -0.50535051233176
  H   7.52908342262100     -1.79578934386791     -0.01702593730106
  C   -2.96764176582249      0.81243217156096      0.78542771773912
  H   -2.59794280692858      0.68070349515023      1.79938757114245
  C   -2.25380562730791      1.55597530113286     -0.07393010626621
  H   -2.56185997974725      1.70687788264613     -1.10461397725435
  C   -0.98619694823203      2.21773887084592      0.26775481837509
  O   -0.36612802033412      2.84094815296799     -0.57718640674290
  C   -4.22259539356227      0.11229750980227      0.50337127619651
  C   -4.81663778903269     -0.63601528418038      1.52143086019479
  C   -4.86154711083993      0.16145328899182     -0.74512785505545
  C   -6.00466655823431     -1.32385738370506      1.30633230640772
  H   -4.34066068959647     -0.68715745145452      2.49573895377496
  C   -6.03991970504853     -0.52038092288500     -0.97065398713950
  H   -4.44725604559201      0.72542043239852     -1.57420590878725
  C   -6.62336673596835     -1.27569718152777      0.06218477391753
  H   -6.45417674071620     -1.90931393369641      2.10326937108904
  O   -7.77386796418851     -1.93241816844034     -0.22534027103263
  H   -8.07901540914768     -2.41478531357477      0.55238321908763
  O   -6.61885348421363     -0.49066067626648     -2.21514962239231
  C   -7.78316846806845      0.34086766807826     -2.27998943804838
  H   -7.52819094467802      1.37371955622832     -2.02476951615226
  H   -8.13656234079269      0.29580115061476     -3.30847403429478
  H   -8.56297170628756     -0.02412176715551     -1.60854950797578
  C   -0.44190662398186      2.11461076946016      1.69316513910949
  H   -1.23547187386390      2.26838024662975      2.42444018570480
  H   0.29765293108374      2.90708878381569      1.81213974353278
  O   3.40430083064145     -2.46700463086593      0.51851356676833
  O   2.26132490278030     -1.45085927768735     -1.00039244237050
  N   3.16571865855011     -1.51336619865712     -0.19327975216484
*

