50
Coordinates from ORCA-job CURCUMIN-OPT-FREQ-Prod-WB97M-V-6-311G-D-363 E -1468.493869663930
  C      -2.737809      0.173298     -0.262328
  H      -2.465771      1.006951     -0.905728
  C      -1.773543     -0.478550      0.403085
  H      -1.999319     -1.265041      1.117671
  C      -0.345101     -0.103474      0.361759
  O       0.414653     -0.454134      1.264625
  C      -4.179318     -0.078335     -0.185698
  C      -5.053428      0.864649     -0.729617
  C      -4.722150     -1.223396      0.415097
  C      -6.429954      0.685406     -0.663084
  H      -4.652646      1.762241     -1.190255
  C      -6.088036     -1.411930      0.483921
  H      -4.089249     -1.994232      0.842827
  C      -6.957981     -0.449274     -0.057059
  H      -7.102918      1.430920     -1.077369
  O      -8.288906     -0.687430      0.052206
  H      -8.785107      0.030707     -0.357989
  O      -6.592690     -2.523487      1.112414
  C      -7.109489     -3.504167      0.205799
  H      -6.321293     -3.852355     -0.468377
  H      -7.459423     -4.334049      0.817020
  H      -7.941372     -3.100948     -0.374993
  C       2.963572     -0.229325     -0.360016
  H       2.155617     -0.947471     -0.468440
  C       2.672205      1.079934     -0.450657
  H       3.426718      1.856489     -0.373807
  C       1.333201      1.570805     -0.729093
  O       1.138252      2.767137     -0.974558
  C       4.277686     -0.817043     -0.120396
  C       4.386708     -2.206822     -0.030867
  C       5.441143     -0.045066      0.030316
  C       5.611360     -2.814396      0.213344
  H       3.500115     -2.822486     -0.145475
  C       6.661579     -0.637741      0.277027
  H       5.416844      1.037877     -0.029179
  C       6.754663     -2.038556      0.374362
  H       5.685599     -3.895238      0.290493
  O       7.977481     -2.557833      0.633953
  H       7.922901     -3.519608      0.686153
  O       7.773991      0.142041      0.468541
  C       8.675943      0.131879     -0.644513
  H       8.176635      0.507807     -1.542350
  H       9.497943      0.794083     -0.379506
  H       9.060019     -0.873424     -0.828216
  C       0.134725      0.695680     -0.763836
  H      -0.494450      0.820293     -1.637115
  H      -0.535722      3.258151     -1.076287
  O      -1.522021      3.330255     -1.054614
  O      -3.000699      3.548121      0.429922
  N      -1.833816      3.509904      0.267107
50
Coordinates from ORCA-job CURCUMIN-OPT-FREQ-Prod-WB97M-V-6-311G-D-363 E -1468.493872909543
  C      -2.737014      0.166374     -0.268309
  H      -2.464419      1.002432     -0.908204
  C      -1.772850     -0.490424      0.392416
  H      -1.999110     -1.278826      1.104729
  C      -0.343849     -0.117344      0.351143
  O       0.415840     -0.471459      1.252711
  C      -4.179103     -0.080897     -0.187736
  C      -5.052303      0.868395     -0.722187
  C      -4.723363     -1.227197      0.409387
  C      -6.429225      0.694945     -0.648039
  H      -4.650355      1.766761     -1.180306
  C      -6.089600     -1.410125      0.485517
  H      -4.091314     -2.003189      0.828939
  C      -6.958702     -0.440014     -0.043562
  H      -7.101204      1.445824     -1.053919
  O      -8.289997     -0.671181      0.076094
  H      -8.785719      0.051744     -0.326075
  O      -6.594965     -2.523703      1.109833
  C      -7.120270     -3.496732      0.199777
  H      -6.337031     -3.843480     -0.480850
  H      -7.469976     -4.329181      0.807588
  H      -7.953788     -3.086708     -0.373954
  C       2.966640     -0.233128     -0.359749
  H       2.160636     -0.953141     -0.469583
  C       2.672311      1.075424     -0.451351
  H       3.424917      1.853670     -0.373016
  C       1.332739      1.563350     -0.733076
  O       1.136027      2.759267     -0.979028
  C       4.281631     -0.817973     -0.117491
  C       4.393532     -2.207581     -0.028879
  C       5.443235     -0.043668      0.035661
  C       5.619205     -2.812746      0.216093
  H       3.508563     -2.825070     -0.145663
  C       6.664764     -0.633975      0.282956
  H       5.416700      1.039228     -0.023266
  C       6.760796     -2.034751      0.378871
  H       5.695655     -3.893485      0.291889
  O       7.984459     -2.552080      0.638523
  H       7.931803     -3.514126      0.688539
  O       7.775516      0.148103      0.475093
  C       8.676238      0.142398     -0.639060
  H       8.175151      0.519459     -1.535400
  H       9.497224      0.805607     -0.373463
  H       9.062128     -0.861652     -0.825650
  C       0.136082      0.685800     -0.771548
  H      -0.491760      0.811117     -1.645549
  H      -0.539228      3.247615     -1.087025
  O      -1.525698      3.318083     -1.069055
  O      -3.010609      3.529786      0.410063
  N      -1.842996      3.497272      0.251394
50
Coordinates from ORCA-job CURCUMIN-OPT-FREQ-Prod-WB97M-V-6-311G-D-363 E -1468.493857592050
  C      -2.736883      0.150287     -0.279080
  H      -2.464155      0.989482     -0.914517
  C      -1.772210     -0.512773      0.374649
  H      -1.998369     -1.303863      1.083996
  C      -0.342873     -0.140790      0.333663
  O       0.417321     -0.500992      1.232362
  C      -4.179597     -0.091078     -0.191425
  C      -5.052119      0.868968     -0.707646
  C      -4.725065     -1.240593      0.398364
  C      -6.429369      0.704071     -0.619796
  H      -4.649051      1.769880     -1.159806
  C      -6.091559     -1.415258      0.487575
  H      -4.093764     -2.025385      0.802338
  C      -6.960042     -0.432629     -0.019228
  H      -7.100317      1.463949     -1.009979
  O      -8.291371     -0.653725      0.118113
  H      -8.786938      0.077287     -0.269179
  O      -6.597073     -2.533439      1.103452
  C      -7.137541     -3.491758      0.186583
  H      -6.363496     -3.834341     -0.506494
  H      -7.485982     -4.329778      0.787364
  H      -7.974482     -3.069413     -0.373242
  C       2.970263     -0.241332     -0.360443
  H       2.167456     -0.964434     -0.471906
  C       2.671202      1.065984     -0.454784
  H       3.420891      1.846877     -0.374924
  C       1.330841      1.549359     -0.742195
  O       1.132420      2.744366     -0.991126
  C       4.286618     -0.821332     -0.113219
  C       4.403234     -2.210610     -0.025446
  C       5.445097     -0.043163      0.044066
  C       5.630479     -2.811670      0.221579
  H       3.520995     -2.831163     -0.145780
  C       6.668284     -0.629446      0.293242
  H       5.414841      1.039639     -0.014173
  C       6.769177     -2.030067      0.387391
  H       5.710528     -3.892200      0.295693
  O       7.994146     -2.544043      0.647802
  H       7.944747     -3.506512      0.694184
  O       7.776185      0.156448      0.486932
  C       8.675199      0.157964     -0.628720
  H       8.171525      0.536993     -1.522730
  H       9.494577      0.822636     -0.361872
  H       9.063910     -0.844099     -0.819968
  C       0.136583      0.668507     -0.784909
  H      -0.489275      0.793919     -1.660135
  H      -0.543743      3.232636     -1.110444
  O      -1.529774      3.307535     -1.089657
  O      -3.005372      3.589521      0.386820
  N      -1.838755      3.548398      0.222878
50
Coordinates from ORCA-job CURCUMIN-OPT-FREQ-Prod-WB97M-V-6-311G-D-363 E -1468.493875650870
  C      -2.738013      0.162595     -0.270108
  H      -2.464982      0.998038     -0.910570
  C      -1.774112     -0.494136      0.391074
  H      -2.000700     -1.282208      1.103659
  C      -0.345186     -0.120727      0.350690
  O       0.414292     -0.477157      1.251484
  C      -4.180207     -0.083894     -0.188589
  C      -5.053520      0.867736     -0.718737
  C      -4.724445     -1.231137      0.406748
  C      -6.430517      0.696177     -0.640869
  H      -4.651529      1.766689     -1.175646
  C      -6.090727     -1.412226      0.486350
  H      -4.092343     -2.009343      0.822108
  C      -6.960013     -0.439059     -0.036783
  H      -7.102392      1.448923     -1.043384
  O      -8.291235     -0.668247      0.087235
  H      -8.787230      0.056468     -0.311340
  O      -6.595855     -2.527183      1.108381
  C      -7.126000     -3.495566      0.196196
  H      -6.345763     -3.840894     -0.488567
  H      -7.475161     -4.329837      0.801798
  H      -7.960762     -3.081595     -0.372984
  C       2.968249     -0.236439     -0.359849
  H       2.163261     -0.957404     -0.469917
  C       2.672416      1.071731     -0.452075
  H       3.424408      1.850596     -0.373894
  C       1.332648      1.558911     -0.735136
  O       1.136692      2.754464     -0.983418
  C       4.283780     -0.819824     -0.116641
  C       4.397294     -2.209415     -0.029599
  C       5.444359     -0.044399      0.038539
  C       5.623520     -2.813391      0.215461
  H       3.513222     -2.827859     -0.147939
  C       6.666429     -0.633574      0.286046
  H       5.416483      1.038549     -0.018812
  C       6.764172     -2.034339      0.379902
  H       5.701160     -3.894143      0.289718
  O       7.988339     -2.550754      0.639094
  H       7.936933     -3.513018      0.686258
  O       7.776221      0.149528      0.479920
  C       8.676012      0.147890     -0.635015
  H       8.173896      0.527317     -1.529769
  H       9.496802      0.810820     -0.368122
  H       9.062418     -0.855351     -0.825012
  C       0.135539      0.681808     -0.772296
  H      -0.491887      0.806238     -1.646728
  H      -0.537160      3.246132     -1.095007
  O      -1.523299      3.319740     -1.077640
  O      -3.007842      3.550983      0.398811
  N      -1.840323      3.510605      0.241198
50
Coordinates from ORCA-job CURCUMIN-OPT-FREQ-Prod-WB97M-V-6-311G-D-363 E -1468.493875209439
  C      -2.737024      0.160963     -0.270890
  H      -2.462902      0.994911     -0.912949
  C      -1.773823     -0.496695      0.390403
  H      -2.001202     -1.283752      1.103848
  C      -0.344179     -0.126422      0.347717
  O       0.415318     -0.481148      1.249139
  C      -4.179496     -0.083579     -0.188728
  C      -5.051730      0.868407     -0.719956
  C      -4.724977     -1.229554      0.407890
  C      -6.428893      0.698141     -0.642482
  H      -4.648751      1.766324     -1.178035
  C      -6.091461     -1.409337      0.487094
  H      -4.093712     -2.007925      0.824232
  C      -6.959622     -0.436167     -0.037850
  H      -7.099948      1.450959     -1.046329
  O      -8.291095     -0.664511      0.084841
  H      -8.786209      0.060177     -0.314944
  O      -6.597924     -2.522889      1.110615
  C      -7.129205     -3.491881      0.199736
  H      -6.349367     -3.839026     -0.484581
  H      -7.479330     -4.324948      0.806460
  H      -7.963483     -3.077743     -0.369968
  C       2.968536     -0.237898     -0.361898
  H       2.164008     -0.959453     -0.472311
  C       2.671737      1.070061     -0.453465
  H       3.423054      1.849527     -0.374675
  C       1.331627      1.556258     -0.736227
  O       1.134185      2.751911     -0.982734
  C       4.284461     -0.820368     -0.118741
  C       4.399144     -2.209942     -0.032744
  C       5.444234     -0.044053      0.037893
  C       5.625705     -2.813015      0.212878
  H       3.515655     -2.829087     -0.151972
  C       6.666573     -0.632339      0.286100
  H       5.415391      1.038947     -0.018300
  C       6.765508     -2.033040      0.378917
  H       5.704212     -3.893766      0.286575
  O       7.989892     -2.548396      0.639073
  H       7.939410     -3.510723      0.685414
  O       7.775459      0.151487      0.482221
  C       8.676619      0.151612     -0.631582
  H       8.175366      0.531641     -1.526577
  H       9.496684      0.814759     -0.362982
  H       9.063870     -0.851220     -0.822122
  C       0.135407      0.678236     -0.774162
  H      -0.492941      0.804089     -1.647794
  H      -0.539934      3.240901     -1.093070
  O      -1.526206      3.312857     -1.074736
  O      -3.009351      3.541371      0.403641
  N      -1.841946      3.504158      0.244338
50
Coordinates from ORCA-job CURCUMIN-OPT-FREQ-Prod-WB97M-V-6-311G-D-363 E -1468.493876373736
  C      -2.737354      0.162311     -0.270522
  H      -2.464350      0.997654     -0.911190
  C      -1.773222     -0.495634      0.389149
  H      -1.999623     -1.284010      1.101445
  C      -0.343892     -0.124022      0.346634
  O       0.416656     -0.481768      1.245961
  C      -4.179576     -0.083474     -0.187586
  C      -5.053048      0.869260     -0.715431
  C      -4.723601     -1.231326      0.406745
  C      -6.430012      0.697969     -0.636606
  H      -4.651187      1.768610     -1.171674
  C      -6.089872     -1.412163      0.487190
  H      -4.091331     -2.010394      0.820242
  C      -6.959309     -0.438105     -0.034015
  H      -7.101991      1.451445     -1.037655
  O      -8.290490     -0.667293      0.090306
  H      -8.786562      0.058210     -0.306795
  O      -6.594790     -2.527730      1.108385
  C      -7.126424     -3.494725      0.195567
  H      -6.347142     -3.839457     -0.490595
  H      -7.475191     -4.329662      0.800499
  H      -7.961698     -3.079723     -0.372043
  C       2.967872     -0.236903     -0.361726
  H       2.162864     -0.958054     -0.471239
  C       2.671930      1.071129     -0.454951
  H       3.423780      1.850181     -0.377148
  C       1.332154      1.557930     -0.738332
  O       1.135651      2.753430     -0.986360
  C       4.283402     -0.819984     -0.117823
  C       4.397218     -2.209574     -0.030836
  C       5.443632     -0.044293      0.038498
  C       5.623383     -2.813240      0.215279
  H       3.513382     -2.828264     -0.149792
  C       6.665588     -0.633176      0.287205
  H       5.415449      1.038686     -0.018396
  C       6.763679     -2.033879      0.380868
  H       5.701199     -3.893991      0.289642
  O       7.987730     -2.549856      0.641366
  H       7.936696     -3.512147      0.687963
  O       7.774986      0.150072      0.482851
  C       8.675734      0.149422     -0.631296
  H       8.174437      0.529751     -1.526137
  H       9.496424      0.811947     -0.363077
  H       9.062135     -0.853727     -0.821898
  C       0.135306      0.680773     -0.775345
  H      -0.493336      0.806759     -1.648721
  H      -0.537898      3.244026     -1.097989
  O      -1.524111      3.317075     -1.080178
  O      -3.007691      3.548428      0.397287
  N      -1.840242      3.510327      0.238499
