50
Coordinates from ORCA-job CURCUMIN-OPT-FREQ-Prod-WB97M-V-6-311G-D-363 E -1468.493876373736
  C          -2.73735398254110      0.16231132624597     -0.27052184590248
  H          -2.46434966822099      0.99765365588651     -0.91118997456139
  C          -1.77322209422538     -0.49563366683843      0.38914851250941
  H          -1.99962296456769     -1.28401007194244      1.10144487935547
  C          -0.34389209383370     -0.12402168517331      0.34663358884513
  O           0.41665604072156     -0.48176811765323      1.24596131680428
  C          -4.17957554800047     -0.08347446209950     -0.18758617622565
  C          -5.05304795768085      0.86926042904437     -0.71543058089901
  C          -4.72360067312877     -1.23132628126419      0.40674542942288
  C          -6.43001201535533      0.69796929224115     -0.63660556749161
  H          -4.65118743416412      1.76861013704101     -1.17167422415916
  C          -6.08987206542038     -1.41216280963462      0.48719034550570
  H          -4.09133099860815     -2.01039398651325      0.82024217679397
  C          -6.95930946207569     -0.43810460862417     -0.03401480980760
  H          -7.10199135609739      1.45144511136644     -1.03765525881913
  O          -8.29048983654095     -0.66729316165603      0.09030595664499
  H          -8.78656151731969      0.05820970741361     -0.30679469116488
  O          -6.59479020484133     -2.52773012978580      1.10838478233977
  C          -7.12642443647682     -3.49472489916117      0.19556660956705
  H          -6.34714217087274     -3.83945740486106     -0.49059511969447
  H          -7.47519120203742     -4.32966162338073      0.80049917400789
  H          -7.96169812442408     -3.07972346958639     -0.37204306038384
  C           2.96787185850654     -0.23690328541967     -0.36172587963875
  H           2.16286424404930     -0.95805434079770     -0.47123875773770
  C           2.67192987036487      1.07112905431326     -0.45495062172031
  H           3.42378025839749      1.85018087770757     -0.37714821657932
  C           1.33215395205192      1.55792962917322     -0.73833193335265
  O           1.13565110151720      2.75343002593781     -0.98636033598669
  C           4.28340221648404     -0.81998354074718     -0.11782335509611
  C           4.39721756922837     -2.20957365106326     -0.03083630065914
  C           5.44363160286322     -0.04429322142131      0.03849765046265
  C           5.62338252745909     -2.81323994091127      0.21527863375294
  H           3.51338226058589     -2.82826392290532     -0.14979220947510
  C           6.66558789381184     -0.63317576201149      0.28720517655064
  H           5.41544900030181      1.03868554721766     -0.01839606839387
  C           6.76367861263552     -2.03387937537762      0.38086761146726
  H           5.70119911794678     -3.89399141538570      0.28964237260042
  O           7.98773007059679     -2.54985642294742      0.64136612642575
  H           7.93669647629224     -3.51214681114635      0.68796251853354
  O           7.77498592538276      0.15007239683500      0.48285076296800
  C           8.67573364663090      0.14942182773278     -0.63129648247766
  H           8.17443746081431      0.52975061918364     -1.52613665763050
  H           9.49642393601558      0.81194727738057     -0.36307719162021
  H           9.06213452760388     -0.85372676951114     -0.82189796873911
  C           0.13530612087159      0.68077314548236     -0.77534470809327
  H          -0.49333597905245      0.80675940788420     -1.64872083476312
  H          -0.53789839467090      3.24402587078645     -1.09798868155305
  O          -1.52411104214585      3.31707477111943     -1.08017820935778
  O          -3.00769115879446      3.54842807228179      0.39728741927041
  N          -1.84024191003675      3.51032665554499      0.23849867815542
