# 
! OptTS NumFreq wb97M-V 6-311+G(d) CPCM RIJDX
%maxcore 2000
%cpcm
epsilon 7 # Dielectric constant
refrac 1.85341 # Refractive index
end

* xyz 0 2
   C      1.929350    1.744682    1.125967
   H      1.788570    2.817023    1.019732
   C      1.199994    1.057529    2.014878
   H      1.371946    0.002979    2.214946
   C      0.133943    1.663852    2.839073
   O     -0.293409    1.074079    3.816587
   C      2.979534    1.181665    0.274325
   C      4.075275    1.960945   -0.078374
   C      3.005031   -0.167726   -0.146347
   C      5.120845    1.454418   -0.843422
   H      4.115596    2.990851    0.259989
   C      3.988713   -0.668338   -1.011069
   H      3.644809   -0.867012    1.465208
   C      5.081535    0.146992   -1.319608
   H      5.962548    2.089281   -1.102140
   O      6.033531   -0.391787   -2.116140
   H      6.730067    0.251840   -2.298393
   O      3.847376   -1.904156   -1.555208
   C      4.656772   -2.920790   -0.927806
   H      4.356480   -3.040904    0.114871
   H      4.463518   -3.837662   -1.479159
   H      5.713526   -2.659289   -0.994690
   C     -2.475497    1.249011    1.157297
   H     -2.354204    1.256722    2.238222
   C     -1.795064    2.137892    0.415797
   H     -1.906632    2.194086   -0.663220
   C     -0.856213    3.120951    0.975000
   O     -0.401342    4.011050    0.272027
   C     -3.408549    0.232736    0.665323
   C     -4.052782   -0.591774    1.590657
   C     -3.677796    0.042786   -0.698260
   C     -4.938034   -1.579785    1.176583
   H     -3.856251   -0.463633    2.650633
   C     -4.556072   -0.935532   -1.119784
   H     -3.199950    0.648044   -1.461450
   C     -5.193002   -1.761604   -0.178350
   H     -5.428407   -2.221185    1.903314
   O     -6.031801   -2.715846   -0.657819
   H     -6.398647   -3.236468    0.067785
   O     -4.768139   -1.134040   -2.462844
   C     -6.014484   -0.596517   -2.923557
   H     -6.033763    0.487493   -2.779161
   H     -6.076910   -0.826501   -3.985416
   H     -6.854221   -1.055842   -2.397889
   C     -0.434798    3.018238    2.438489
   H     -1.288029    3.222193    3.089853
   H      0.314211    3.794705    2.615854
   O      1.748576   -2.053183    0.416531
   O      0.796613   -0.489762   -0.720312
   N      1.746211   -0.970885   -0.132544
*


