50
Coordinates from ORCA-job CURCUMIN-OPT-FREQ-TS-M06-2X-6-311+G-D-298-cont E -1468.462828245462
  C           1.87952617131553      1.76597615956091      1.15184813732869
  H           1.75206538761618      2.83979937311708      1.04325106460758
  C           1.17150506340975      1.09624851127461      2.07064379614598
  H           1.33500951967587      0.04072242294434      2.27271794590964
  C           0.14060121929928      1.72104284912252      2.92559243278065
  O          -0.25863770821729      1.14214781089443      3.92144920641394
  C           2.88885772168427      1.18130970503096      0.26628086330077
  C           3.97909615248044      1.94307968155248     -0.13841738251546
  C           2.88113185780782     -0.17228706898546     -0.14113835781958
  C           4.98599998415966      1.41583671730258     -0.94045545284730
  H           4.04625761369253      2.97551419617880      0.18740760368918
  C           3.82275087372771     -0.69422931666992     -1.03923429822262
  H           3.57861742899547     -0.86278931670002      1.45257513294553
  C           4.91137586115662      0.10434826185711     -1.40144724280905
  H           5.82401712956921      2.03733907174279     -1.24007233098679
  O           5.82287409412476     -0.45407203990671     -2.23117679121673
  H           6.51348085774394      0.18161347734328     -2.45775735571224
  O           3.64335599708332     -1.93366122903306     -1.56378319590282
  C           4.46535314749199     -2.95453658221344     -0.96001610749892
  H           4.20361594266510     -3.06396083252161      0.09416873661599
  H           4.24173846145498     -3.87311396451859     -1.49679242955263
  H           5.52147329281884     -2.70486356722130     -1.06863244981093
  C          -2.43032715317508      1.29772847288312      1.21471038219233
  H          -2.31753810990285      1.28684607859423      2.29661099075678
  C          -1.77462466165393      2.22413112743980      0.49761737150770
  H          -1.88598949389185      2.30342010801692     -0.57996412028345
  C          -0.85840909988971      3.21365195799943      1.08261316141998
  O          -0.42850289307194      4.13497378454475      0.40433777728556
  C          -3.32300672215881      0.26001131038534      0.69320978144397
  C          -3.98633832701027     -0.57345291991032      1.59676669763635
  C          -3.52758550944470      0.05312242376143     -0.67908959952437
  C          -4.82957168883614     -1.58491229447286      1.15287067792746
  H          -3.83816656224955     -0.43384819588114      2.66310214484702
  C          -4.36173253329754     -0.95048617512710     -1.13014554964790
  H          -3.02750003795689      0.66120036092434     -1.42565969442955
  C          -5.01852406739004     -1.78507013530707     -0.21015653631614
  H          -5.33506348668713     -2.23280324480555      1.86318967728834
  O          -5.80734598833489     -2.76772934819457     -0.71632352823772
  H          -6.18990652947555     -3.29208131479495     -0.00167204688649
  O          -4.50531075810958     -1.16718267120326     -2.47937165751431
  C          -5.74706838219031     -0.67844587023490     -3.00252865669441
  H          -5.81134221865064      0.40533211170382     -2.86990227806418
  H          -5.75154757721486     -0.91926714915330     -4.06378963867369
  H          -6.59357706707649     -1.16324850480768     -2.51181266070293
  C          -0.42735763511844      3.08020591223467      2.54047411690980
  H          -1.27672409089587      3.27790898205729      3.19914077172606
  H           0.32531040238858      3.85106875423234      2.72784794988255
  O           1.62361236286290     -2.03365777833100      0.49697531915284
  O           0.65015499373875     -0.47680610151656     -0.63067693057034
  N           1.61449076493685     -0.96025200118899     -0.06940644727411
