%oldchk=/home/natrosa/MOSSRI/REACAO-1/B3LYP-6-311+G-D/CURCUMIN-OPT-FREQ-Prod-1-B3LYP-6-311G-D-298.chk
%chk=CURCUMIN-OPT-FREQ-Prod-1-B3LYP-6-311+G-D-298.chk
# opt=(calcfc) freq=noraman b3lyp/6-311+g(d) scrf=(smd,solvent=generic,read) temperature=298.15 Geom=Check Guess=Read

Reagente 1

0 2

Eps=7
EpsInf=1.85341
HbondAcidity=0
HbondBasicity=0.48
SurfaceTensionAtInterface=60.62
CarbonAromaticity=0
ElectronegativeHalogenicity=0

