! OptTS NumFreq wb97M-V 6-311+G(d) CPCM RIJDX
%maxcore 2000
%cpcm
epsilon 7 # Dielectric constant
refrac 1.85341 # Refractive index
end

* xyz 0 2
C         -2.53029        0.30007       -0.18442
H         -2.02287        0.58664       -1.10152
C         -1.94279        0.58427        1.00090
H         -2.41363        0.31521        1.94136
C         -0.65529        1.25754        1.17145
O         -0.17874        1.44613        2.28310
C         -3.80823       -0.35518       -0.39391
C         -4.26130       -0.54905       -1.71071
C         -4.62356       -0.81666        0.66064
C         -5.47747       -1.16528       -1.96584
H         -3.65470       -0.20446       -2.54180
C         -5.83846       -1.43168        0.42240
H         -4.32528       -0.69159        1.69516
C         -6.28006       -1.60554       -0.91100
H         -5.81953       -1.29721       -2.98877
O         -7.48721       -2.18766       -1.09799
H         -7.68408       -2.24325       -2.04425
O         -6.62287       -1.79866        1.48091
C         -6.78493       -3.21257        1.68140
H         -5.81284       -3.69404        1.82869
H         -7.38203       -3.32086        2.58616
H         -7.30630       -3.67905        0.84380
C          2.75623        0.25586       -0.11040
H          1.84219       -0.27506       -0.36522
C          2.68181        1.57122        0.18844
H          3.56834        2.14029        0.45384
C          1.45761        2.37684        0.22950
O          1.49963        3.56829        0.49296
C          3.95155       -0.57452       -0.13198
C          3.83099       -1.92915       -0.48228
C          5.23667       -0.08744        0.18094
C          4.93970       -2.76496       -0.50902
H          2.85501       -2.33417       -0.72909
C          6.35068       -0.90755        0.15863
H          5.39059        0.94752        0.46353
C          6.20404       -2.27081       -0.18553
H          4.82763       -3.81437       -0.76879
O          7.31651       -3.04542       -0.16801
H          7.08777       -3.95347       -0.41243
O          7.56352       -0.39836        0.53727
C          8.54526       -0.28209       -0.50517
H          8.17457        0.35563       -1.31426
H          9.41610        0.18607       -0.04742
H          8.82497       -1.25921       -0.90286
C          0.12041        1.70452       -0.04999
H          0.13688        0.97134       -0.85706
H         -0.57232        2.62448       -0.56302
O         -1.27184        3.55086       -1.16510
O         -2.65472        5.01212       -0.54160
N         -1.95432        4.12489       -0.15327
*
