%chk=CURCUMIN-OPT-FREQ-Reag-B3LYP-6-311G-D-298.chk
# opt=(calcfc) freq=noraman b3lyp/6-311g(d) scrf=(smd,solvent=generic,read) temperature=298.15 SCF=(MaxCycle=500)

XXX

0 2
 C                 -2.50900600    0.25875500   -0.18729000
 H                 -1.98867000    0.52845200   -1.10331200
 C                 -1.92491000    0.54141300    0.99630500
 H                 -2.41236900    0.29276900    1.93500400
 C                 -0.60772600    1.18056400    1.18403400
 O                 -0.18430700    1.39602500    2.30939800
 C                 -3.79509700   -0.39677500   -0.40454900
 C                 -4.24730400   -0.59260900   -1.71887500
 C                 -4.61041800   -0.86028400    0.64682800
 C                 -5.46584500   -1.21023000   -1.97475600
 H                 -3.64036000   -0.25089800   -2.55134200
 C                 -5.82701000   -1.47598800    0.40824600
 H                 -4.31182100   -0.73758200    1.68177000
 C                 -6.26880400   -1.65041300   -0.92241800
 H                 -5.80627800   -1.34272500   -2.99843200
 O                 -7.47936300   -2.23452400   -1.11038800
 H                 -7.67122600   -2.29183500   -2.05705800
 O                 -6.61062500   -1.84336000    1.46979400
 C                 -6.77210900   -3.25655600    1.66903000
 H                 -5.80015100   -3.73892300    1.81571800
 H                 -7.36909900   -3.36673100    2.57388900
 H                 -7.29336900   -3.72262200    0.83093500
 C                  2.79072000    0.21245100   -0.10780700
 H                  1.87668400   -0.32310800   -0.33733200
 C                  2.72867700    1.52731200    0.18652000
 H                  3.62201900    2.10079800    0.41609300
 C                  1.48696300    2.29443900    0.23671900
 O                  1.49446600    3.49598000    0.47672300
 C                  3.97484600   -0.62284400   -0.14390100
 C                  3.84672200   -1.97492500   -0.49347400
 C                  5.25589500   -0.13499800    0.16777500
 C                  4.95488600   -2.81152400   -0.52097900
 H                  2.86883300   -2.37668700   -0.73845500
 C                  6.36717000   -0.95533600    0.14672400
 H                  5.40820100    0.89971700    0.45119900
 C                  6.21862000   -2.31723400   -0.19740900
 H                  4.84318000   -3.86108500   -0.78063100
 O                  7.33188000   -3.09286000   -0.17985800
 H                  7.10176000   -4.00002300   -0.42537500
 O                  7.57891400   -0.44386000    0.52629100
 C                  8.55811000   -0.32678300   -0.51692900
 H                  8.18614600    0.31084000   -1.32574500
 H                  9.42995500    0.14167300   -0.06113500
 H                  8.83764100   -1.30366600   -0.91564200
 C                  0.19691500    1.54708500   -0.04824400
 H                  0.35553700    0.64532400   -0.63870100
 H                 -0.40476600    2.17851500   -0.67030700
 O                 -1.32209700    3.59920200   -1.23546600
 O                 -2.72932600    5.04211900   -0.41715800
 N                 -1.95411100    4.14081700   -0.38151000

Eps=7
EpsInf=1.85341
HbondAcidity=0
HbondBasicity=0.48	
SurfaceTensionAtInterface=60.62
CarbonAromaticity=0
ElectronegativeHalogenicity=0

