%chk=CURCUMIN-OPT-FREQ-Prod-B3LYP-6-311G-D-298.chk
# opt=(calcfc) freq=noraman b3lyp/6-311g(d) scrf=(smd,solvent=generic,read) temperature=298.15 SCF=(MaxCycle=500)

XXX

0 2
 C                 -2.51243500    0.25755700   -0.19883500
 H                 -2.00521500    0.53756400   -1.11867000
 C                 -1.92259000    0.53642100    0.98298500
 H                 -2.40955500    0.28852000    1.92156500
 C                 -0.61665900    1.18372400    1.17476800
 O                 -0.20095700    1.42735300    2.31458000
 C                 -3.79703800   -0.39591500   -0.40784100
 C                 -4.25075700   -0.59256300   -1.72190000
 C                 -4.61081700   -0.85922600    0.64565900
 C                 -5.46799600   -1.21113800   -1.97609600
 H                 -3.64551900   -0.24939400   -2.55482900
 C                 -5.82689700   -1.47564400    0.40830400
 H                 -4.31218700   -0.73488500    1.68032400
 C                 -6.26998800   -1.65102500   -0.92247500
 H                 -5.80957500   -1.34384400   -2.99928000
 O                 -7.47964900   -2.23520000   -1.10953400
 H                 -7.67377400   -2.29060100   -2.05598300
 O                 -6.60952600   -1.84307400    1.46996100
 C                 -6.77154200   -3.25645100    1.66852100
 H                 -5.79963000   -3.73909600    1.81447400
 H                 -7.36809400   -3.36671200    2.57359900
 H                 -7.29344400   -3.72187700    0.83052100
 C                  2.80306400    0.21429000   -0.09983200
 H                  1.86830900   -0.30708800   -0.29274500
 C                  2.75518200    1.53840800    0.16746100
 H                  3.64549900    2.12779600    0.36349800
 C                  1.50200600    2.26483700    0.23780600
 O                  1.43603000    3.47293500    0.45020600
 C                  3.98055600   -0.62546000   -0.14568900
 C                  3.84953100   -1.97877000   -0.49299800
 C                  5.26353900   -0.13720300    0.16438900
 C                  4.95695400   -2.81512100   -0.52207100
 H                  2.87052000   -2.37942300   -0.73462500
 C                  6.37320200   -0.95810600    0.14527500
 H                  5.41702200    0.89717100    0.44812000
 C                  6.22184300   -2.32079000   -0.19884100
 H                  4.84496300   -3.86477100   -0.78065100
 O                  7.33288100   -3.09562500   -0.18031200
 H                  7.10448400   -4.00383400   -0.42452500
 O                  7.58422100   -0.44848200    0.52615000
 C                  8.56245200   -0.32655400   -0.51819900
 H                  8.18789600    0.31245700   -1.32454900
 H                  9.43367000    0.14227600   -0.06190600
 H                  8.84322900   -1.30193800   -0.91957500
 C                  0.23592200    1.48940300    0.02995700
 H                  0.05390500    1.04071600   -0.94097900
 H                 -0.62229100    3.04826000   -0.84766900
 O                 -1.29821400    3.60513300   -1.27665600
 O                 -2.72580200    4.99550700   -0.51827100
 N                 -1.96281400    4.17630400   -0.17131700

Eps=7
EpsInf=1.85341
HbondAcidity=0
HbondBasicity=0.48	
SurfaceTensionAtInterface=60.62
CarbonAromaticity=0
ElectronegativeHalogenicity=0

