! Opt NumFreq wb97M-V 6-311G(d) CPCM RIJDX
%maxcore 2000
%cpcm
epsilon 7 # Dielectric constant
refrac 1.85341 # Refractive index
end

* xyz 0 2
C     -2.751635    0.256058   -0.312564
H     -2.341337    0.675132   -1.228229
C     -1.998279    0.298418    0.805510
H     -2.364682   -0.091341    1.750987
C     -0.643946    0.861900    0.897689
O     -0.060407    0.887355    1.971457
C     -4.093930   -0.293825   -0.457346
C     -4.730160   -0.207514   -1.705364
C     -4.790893   -0.921728    0.593892
C     -6.010944   -0.711446   -1.895166
H     -4.217903    0.267623   -2.535693
C     -6.067014   -1.429181    0.419890
H     -4.350054   -1.019209    1.579525
C     -6.694027   -1.318931   -0.841558
H     -6.493820   -0.624671   -2.864908
O     -7.954729   -1.806719   -0.962212
H     -8.273583   -1.668120   -1.865243
O     -6.723111   -1.972090    1.492617
C     -6.944534   -3.389985    1.434552
H     -5.993450   -3.925579    1.348123
H     -7.425351   -3.658790    2.374681
H     -7.597478   -3.659899    0.602582
C      2.698306   -0.003742   -0.184978
H      1.792465   -0.578045   -0.363154
C      2.594082    1.332352   -0.030504
H      3.468268    1.947962    0.161071
C      1.345820    2.098566   -0.086866
O      1.368921    3.312774    0.082083
C      3.912516   -0.808800   -0.139369
C      3.815157   -2.194816   -0.338400
C      5.193132   -0.265822    0.084827
C      4.942378   -3.006369   -0.305057
H      2.842945   -2.643303   -0.515701
C      6.324963   -1.061673    0.123272
H      5.330341    0.796862    0.248582
C      6.202153   -2.456064   -0.068483
H      4.848112   -4.078902   -0.452677
O      7.332900   -3.203542    0.002458
H      7.117122   -4.136044   -0.139478
O      7.535273   -0.489053    0.412317
C      8.484971   -0.462874   -0.664542
H      8.078633    0.079824   -1.524393
H      9.357780    0.066918   -0.283886
H      8.775369   -1.470507   -0.967492
C      0.018587    1.406103   -0.372506
H      0.130300    0.590509   -1.092464
H     -0.640617    2.145105   -0.832419
O     -1.356703    4.806173   -0.822513
O     -0.285703    5.932410    0.728617
N     -0.819257    4.988892    0.231428
*
