# 
! Opt NumFreq wb97M-V 6-311+G(d) CPCM RIJDX
%maxcore 2000
%cpcm
epsilon 7 # Dielectric constant
refrac 1.85341 # Refractive index
end

* xyz 0 2
   C      1.868737    1.485878    1.561272
   H      1.706137    2.549130    1.716787
   C      1.166009    0.586986    2.258744
   H      1.366246   -0.479103    2.188541
   C      0.094990    0.944882    3.214644
   O     -0.306896    0.119148    4.015521
   C      2.923725    1.152832    0.589233
   C      4.089871    1.916285    0.538370
   C      2.848711    0.078698   -0.299245
   C      5.125458    1.603960   -0.331922
   H      4.191417    2.765281    1.205776
   C      3.855964   -0.259885   -1.189454
   H      4.779661   -1.557943    2.828665
   C      5.019424    0.522285   -1.199862
   H      6.023379    2.214134   -0.352269
   O      5.972191    0.179758   -2.099162
   H      6.724626    0.783385   -2.050489
   O      3.659502   -1.262871   -2.089441
   C      4.402952   -2.463166   -1.798447
   H      4.091552   -2.864773   -0.832298
   H      4.156597   -3.166343   -2.590421
   H      5.474185   -2.258855   -1.800602
   C     -2.513358    0.921818    1.480570
   H     -2.390689    0.659097    2.528913
   C     -1.855768    1.984955    0.991183
   H     -1.974719    2.311800   -0.037784
   C     -0.935903    2.811676    1.785294
   O     -0.506030    3.864282    1.337691
   C     -3.426128    0.045340    0.742773
   C     -4.097039   -0.964615    1.436282
   C     -3.650772    0.169657   -0.636424
   C     -4.968273   -1.826840    0.781814
   H     -3.933664   -1.082082    2.503131
   C     -4.513371   -0.683197   -1.296197
   H     -3.147272    0.927860   -1.227297
   C     -5.180356   -1.696097   -0.586171
   H     -5.479937   -2.613242    1.329412
   O     -6.001231   -2.513446   -1.295026
   H     -6.406738   -3.170258   -0.714911
   O     -4.677333   -0.573996   -2.655941
   C     -5.915744    0.042999   -3.030651
   H     -5.958515    1.065823   -2.645604
   H     -5.935869    0.059289   -4.118620
   H     -6.765275   -0.531348   -2.655576
   C     -0.503892    2.343695    3.172722
   H     -1.356976    2.356443    3.855619
   H      0.232006    3.063031    3.542631
   O      1.681591   -1.895526   -0.045700
   O      0.617636   -0.184358   -0.815028
   N      1.617459   -0.730901   -0.392456
*


