! Opt NumFreq wb97M-V 6-311+G(d) CPCM RIJDX
%maxcore 2000
%cpcm
epsilon 7 # Dielectric constant
refrac 1.85341 # Refractive index
end
%FREQ TEMP 363.15 END

* xyz 0 2
  C   -2.62126126806549      0.36823506644603     -0.51394967835892
  H   -2.21161737918465      0.72940514895111     -1.45507138905095
  C   -1.92087599479846      0.56060574657359      0.61362419013234
  H   -2.28214790724020      0.22777752066511      1.58260750019745
  C   -0.61477487031512      1.23716801157428      0.65882975726165
  O   -0.03873174777306      1.39959988517150      1.72360975934635
  C   -3.92142195621786     -0.29725882802538     -0.63778785126329
  C   -4.49759684913540     -0.41834418734112     -1.90423098883181
  C   -4.61408677925671     -0.82634063192437      0.46139492743112
  C   -5.72800855060993     -1.04095019680286     -2.07698135477499
  H   -3.97938418835420     -0.01787138956446     -2.77010487144409
  C   -5.83779126840147     -1.44609868849792      0.30064567543047
  H   -4.21540905982094     -0.75933241411901      1.46836794405743
  C   -6.40889878391838     -1.55424744579336     -0.97879960088761
  H   -6.16917023368029     -1.12323842307048     -3.06615297127463
  O   -7.62205035648256     -2.15842381139572     -1.06762285771855
  H   -7.92324669960805     -2.17981088862532     -1.98474127915349
  O   -6.51851803785371     -1.91064550945807      1.39993105651068
  C   -6.46795022873041     -3.33649039240335      1.54026606314424
  H   -5.43301023048420     -3.66564485092375      1.66988099339990
  H   -7.04432584235800     -3.57940576909137      2.43080078466371
  H   -6.90894441848364     -3.82858527833413      0.67112820537711
  C   2.53597305034424      0.21188407939143     -0.27794382062239
  H   1.58320959516495     -0.30005013142347     -0.39830395901218
  C   2.55745755267856      1.55289646531804     -0.26747680082307
  H   3.47774541123496      2.11378194076555     -0.13136544454849
  C   1.35389466079053      2.38667610559935     -0.39539219625541
  O   1.43232154115161      3.60377545311768     -0.30297258916921
  C   3.68319531693724     -0.68835020355619     -0.13164007233524
  C   3.45825481241430     -2.06675563543133     -0.12200154970343
  C   5.00254996790381     -0.22883801314940     -0.00573687671617
  C   4.50943506848922     -2.96522497110335      0.01611896715802
  H   2.44542245953303     -2.44548916993352     -0.21939016382321
  C   6.05445865310809     -1.11352284443583      0.12964251753083
  H   5.23701597729294      0.83058196475310     -0.00854425558153
  C   5.81240144248404     -2.49761337563510      0.14492837557321
  H   4.32108686979759     -4.03486429106803      0.03020811536151
  O   6.88743416950339     -3.31443718642121      0.29482540679167
  H   6.61254173935840     -4.23984704989734      0.28006238733109
  O   7.33236782228535     -0.63696283001954      0.29656922931859
  C   8.13583892454363     -0.74195784237461     -0.88598980596431
  H   7.70034974296955     -0.14403084981578     -1.69166465334172
  H   9.11775523659396     -0.35002151222640     -0.62801742281271
  H   8.22697286999490     -1.78291701549375     -1.20289508257981
  C   0.00141249824624      1.74168826980442     -0.64051527858553
  H   0.06766343956366      0.92579822743694     -1.36479142626876
  H   -0.65851752688541      2.50012918300442     -1.06912046823862
  O   -1.48470640735968      4.26296920356872      0.83876367555474
  O   0.01061500117980      5.63309367163901      1.65196136820686
  N   -0.54798023854622      4.59985768357533      1.48803280936115
*
