50
Coordinates from ORCA-job CURCUMIN-OPT-FREQ-Reag-WB97M-V-6-311+G-D-363 E -1468.551341247287
  C      -2.621261      0.368235     -0.513950
  H      -2.211617      0.729405     -1.455071
  C      -1.920876      0.560606      0.613624
  H      -2.282148      0.227778      1.582608
  C      -0.614775      1.237168      0.658830
  O      -0.038732      1.399600      1.723610
  C      -3.921422     -0.297259     -0.637788
  C      -4.497597     -0.418344     -1.904231
  C      -4.614087     -0.826341      0.461395
  C      -5.728009     -1.040950     -2.076981
  H      -3.979384     -0.017871     -2.770105
  C      -5.837791     -1.446099      0.300646
  H      -4.215409     -0.759332      1.468368
  C      -6.408899     -1.554247     -0.978800
  H      -6.169170     -1.123238     -3.066153
  O      -7.622050     -2.158424     -1.067623
  H      -7.923247     -2.179811     -1.984741
  O      -6.518518     -1.910646      1.399931
  C      -6.467950     -3.336490      1.540266
  H      -5.433010     -3.665645      1.669881
  H      -7.044326     -3.579406      2.430801
  H      -6.908944     -3.828585      0.671128
  C       2.535973      0.211884     -0.277944
  H       1.583210     -0.300050     -0.398304
  C       2.557458      1.552896     -0.267477
  H       3.477745      2.113782     -0.131365
  C       1.353895      2.386676     -0.395392
  O       1.432322      3.603775     -0.302973
  C       3.683195     -0.688350     -0.131640
  C       3.458255     -2.066756     -0.122002
  C       5.002550     -0.228838     -0.005737
  C       4.509435     -2.965225      0.016119
  H       2.445422     -2.445489     -0.219390
  C       6.054459     -1.113523      0.129643
  H       5.237016      0.830582     -0.008544
  C       5.812401     -2.497613      0.144928
  H       4.321087     -4.034864      0.030208
  O       6.887434     -3.314437      0.294825
  H       6.612542     -4.239847      0.280062
  O       7.332368     -0.636963      0.296569
  C       8.135839     -0.741958     -0.885990
  H       7.700350     -0.144031     -1.691665
  H       9.117755     -0.350022     -0.628017
  H       8.226973     -1.782917     -1.202895
  C       0.001412      1.741688     -0.640515
  H       0.067663      0.925798     -1.364791
  H      -0.658518      2.500129     -1.069120
  O      -1.484706      4.262969      0.838764
  O       0.010615      5.633094      1.651961
  N      -0.547980      4.599858      1.488033
50
Coordinates from ORCA-job CURCUMIN-OPT-FREQ-Reag-WB97M-V-6-311+G-D-363 E -1468.551350666530
  C      -2.623179      0.363810     -0.521829
  H      -2.217666      0.727535     -1.463769
  C      -1.918323      0.552851      0.603540
  H      -2.277087      0.218634      1.572980
  C      -0.612328      1.229755      0.647131
  O      -0.034912      1.391018      1.711334
  C      -3.925595     -0.298250     -0.640189
  C      -4.512413     -0.410642     -1.902628
  C      -4.611009     -0.831003      0.461680
  C      -5.747260     -1.026618     -2.068357
  H      -4.000256     -0.006788     -2.770482
  C      -5.838106     -1.445566      0.307799
  H      -4.203687     -0.771184      1.465616
  C      -6.421276     -1.542920     -0.967076
  H      -6.197610     -1.100390     -3.054018
  O      -7.639130     -2.138955     -1.047681
  H      -7.950191     -2.152003     -1.961525
  O      -6.510264     -1.915056      1.410189
  C      -6.460286     -3.341743      1.542274
  H      -5.424747     -3.672692      1.661982
  H      -7.030034     -3.588988      2.435845
  H      -6.908440     -3.828585      0.673837
  C       2.537838      0.207368     -0.291815
  H       1.585982     -0.304965     -0.416553
  C       2.558522      1.548403     -0.279253
  H       3.478119      2.109461     -0.139234
  C       1.354574      2.381765     -0.406375
  O       1.432648      3.598759     -0.312050
  C       3.685199     -0.691904     -0.140889
  C       3.462705     -2.070813     -0.138007
  C       5.002534     -0.230387     -0.002448
  C       4.514609     -2.967805      0.005134
  H       2.451392     -2.451079     -0.244422
  C       6.055016     -1.113488      0.138231
  H       5.234863      0.829469      0.001173
  C       5.815594     -2.498045      0.146688
  H       4.328217     -4.037836      0.014293
  O       6.891117     -3.312859      0.303814
  H       6.618753     -4.238832      0.284611
  O       7.330371     -0.634946      0.318175
  C       8.143569     -0.730004     -0.858583
  H       7.713626     -0.126869     -1.663322
  H       9.122719     -0.338455     -0.589811
  H       8.238897     -1.768348     -1.182547
  C       0.002199      1.736584     -0.651960
  H       0.068429      0.922008     -1.377627
  H      -0.658385      2.495399     -1.078725
  O      -1.483520      4.253737      0.831680
  O       0.011624      5.623556      1.645515
  N      -0.546464      4.590259      1.480651
50
Coordinates from ORCA-job CURCUMIN-OPT-FREQ-Reag-WB97M-V-6-311+G-D-363 E -1468.551354920744
  C      -2.624956      0.361441     -0.527819
  H      -2.221827      0.725023     -1.470886
  C      -1.916500      0.548529      0.595606
  H      -2.273343      0.214305      1.565716
  C      -0.610355      1.225007      0.637266
  O      -0.031834      1.386428      1.700882
  C      -3.929277     -0.297994     -0.641129
  C      -4.525230     -0.403522     -1.899918
  C      -4.608255     -0.834008      0.463143
  C      -5.763199     -1.015068     -2.059530
  H      -4.017973      0.002267     -2.769733
  C      -5.838132     -1.444375      0.315324
  H      -4.193701     -0.780065      1.464402
  C      -6.431096     -1.533838     -0.955540
  H      -6.220607     -1.083446     -3.042318
  O      -7.651099     -2.126467     -1.028995
  H      -7.970416     -2.133912     -1.940015
  O      -6.503280     -1.917913      1.420172
  C      -6.453937     -3.345269      1.544655
  H      -5.418010     -3.677827      1.656220
  H      -7.018556     -3.596655      2.440304
  H      -6.907751     -3.827179      0.676314
  C       2.538943      0.202861     -0.302360
  H       1.587854     -0.309604     -0.431906
  C       2.559234      1.543927     -0.288704
  H       3.478360      2.105015     -0.145984
  C       1.355352      2.377181     -0.416972
  O       1.433555      3.594189     -0.322585
  C       3.686329     -0.695872     -0.147998
  C       3.466276     -2.075191     -0.156030
  C       5.001575     -0.232988      0.004864
  C       4.518720     -2.971285     -0.010540
  H       2.456602     -2.456540     -0.273426
  C       6.054448     -1.115133      0.148372
  H       5.231878      0.827189      0.018250
  C       5.817656     -2.500096      0.145160
  H       4.334259     -4.041682     -0.010525
  O       6.893851     -3.313525      0.304777
  H       6.624228     -4.240072      0.277406
  O       7.327356     -0.635729      0.342375
  C       8.149495     -0.717868     -0.829067
  H       7.725078     -0.106817     -1.630757
  H       9.126249     -0.328396     -0.548851
  H       8.248092     -1.752694     -1.163238
  C       0.002883      1.731921     -0.662260
  H       0.068796      0.917464     -1.388129
  H      -0.658025      2.490728     -1.088471
  O      -1.481863      4.247620      0.821536
  O       0.013534      5.617854      1.634082
  N      -0.544434      4.584433      1.469852
50
Coordinates from ORCA-job CURCUMIN-OPT-FREQ-Reag-WB97M-V-6-311+G-D-363 E -1468.551356995273
  C      -2.625914      0.360947     -0.529245
  H      -2.223170      0.723161     -1.473010
  C      -1.916092      0.548004      0.593313
  H      -2.272264      0.214849      1.564024
  C      -0.609565      1.223633      0.633402
  O      -0.030332      1.386062      1.696513
  C      -3.931136     -0.297281     -0.640331
  C      -4.530790     -0.399787     -1.897575
  C      -4.607527     -0.834898      0.464801
  C      -5.769740     -1.009939     -2.054992
  H      -4.025492      0.006955     -2.768096
  C      -5.838394     -1.443806      0.319189
  H      -4.190175     -0.783602      1.465026
  C      -6.434934     -1.530388     -0.950221
  H      -6.229816     -1.076157     -3.036685
  O      -7.655461     -2.122139     -1.021166
  H      -7.978129     -2.126846     -1.931045
  O      -6.501069     -1.918948      1.424884
  C      -6.451008     -3.346496      1.546964
  H      -5.414790     -3.678873      1.656411
  H      -7.014294     -3.599667      2.442956
  H      -6.905835     -3.827111      0.678432
  C       2.539139      0.199864     -0.306405
  H       1.588284     -0.312689     -0.437364
  C       2.559309      1.540953     -0.293239
  H       3.478359      2.102139     -0.150542
  C       1.355627      2.374228     -0.423101
  O       1.434181      3.591353     -0.330288
  C       3.686580     -0.698655     -0.150923
  C       3.467967     -2.078107     -0.167497
  C       5.000608     -0.235343      0.011035
  C       4.520643     -2.974001     -0.022424
  H       2.459236     -2.459804     -0.291689
  C       6.053693     -1.117266      0.154382
  H       5.229748      0.824950      0.032237
  C       5.818396     -2.502441      0.141788
  H       4.337215     -4.044549     -0.029466
  O       6.894818     -3.315522      0.301416
  H       6.626578     -4.242288      0.267935
  O       7.325261     -0.637936      0.357209
  C       8.151935     -0.709896     -0.811661
  H       7.730360     -0.092349     -1.609877
  H       9.127479     -0.322503     -0.524437
  H       8.252176     -1.741844     -1.154208
  C       0.002916      1.728940     -0.667092
  H       0.068187      0.913677     -1.392148
  H      -0.658084      2.487410     -1.093758
  O      -1.480611      4.245935      0.814189
  O       0.015560      5.616987      1.623898
  N      -0.542685      4.583433      1.461472
