! OptTS NumFreq wb97M-V 6-311+G(d) CPCM RIJDX
%maxcore 2000
%cpcm
epsilon 7 # Dielectric constant
refrac 1.85341 # Refractive index
end
%FREQ temp 363.15 # temperature is 363.15K
end
* xyz 0 2
  C   1.92935063121372      1.74468189993089      1.12596664063356
  H   1.78856954254550      2.81702306148328      1.01973188305747
  C   1.19999399868730      1.05752925411934      2.01487843843213
  H   1.37194663778270      0.00297860421546      2.21494648717022
  C   0.13394340123299      1.66385148979481      2.83907291835187
  O   -0.29340907729508      1.07407959165611      3.81658706072436
  C   2.97953397385798      1.18166507741077      0.27432555266097
  C   4.07527489894513      1.96094517472908     -0.07837398656569
  C   3.00503064407177     -0.16772594082237     -0.14634653392110
  C   5.12084545297356      1.45441785129491     -0.84342186283343
  H   4.11559584176200      2.99085078958334      0.25998909223974
  C   3.98871357840170     -0.66833777585997     -1.01106887998478
  H   3.64480904512229     -0.86701227475442      1.46520775456609
  C   5.08153499778748      0.14699195525646     -1.31960799362772
  H   5.96254737476096      2.08928083930585     -1.10214010510112
  O   6.03353138697704     -0.39178736095338     -2.11613992157156
  H   6.73006726339230      0.25183971566793     -2.29839351571089
  O   3.84737540774871     -1.90415641240606     -1.55520852864717
  C   4.65677238570389     -2.92078965068791     -0.92780633395933
  H   4.35648019197689     -3.04090343771653      0.11487121533053
  H   4.46351821493506     -3.83766181429762     -1.47915908697950
  H   5.71352590469093     -2.65928855828997     -0.99468942481155
  C   -2.47549755108921      1.24901127343595      1.15729665565658
  H   -2.35420359308126      1.25672189171005      2.23822238274193
  C   -1.79506397044248      2.13789244842034      0.41579728038926
  H   -1.90663258958610      2.19408608668432     -0.66322042624362
  C   -0.85621372021479      3.12095069694920      0.97499985811760
  O   -0.40134181502677      4.01105014365716      0.27202744245187
  C   -3.40854931708690      0.23273591176121      0.66532271771344
  C   -4.05278202952041     -0.59177377133185      1.59065756009720
  C   -3.67779568605253      0.04278537141917     -0.69826058064165
  C   -4.93803360587111     -1.57978485499870      1.17658264616956
  H   -3.85625121128986     -0.46363265488830      2.65063298370971
  C   -4.55607208219547     -0.93553200559672     -1.11978373340628
  H   -3.19995046711782      0.64804388323120     -1.46144974766961
  C   -5.19300225484529     -1.76160421757840     -0.17834988774675
  H   -5.42840733809820     -2.22118535638637      1.90331376327853
  O   -6.03180082977008     -2.71584633377419     -0.65781837654598
  H   -6.39864699114102     -3.23646844609846      0.06778471119543
  O   -4.76813903723731     -1.13403973892692     -2.46284345322754
  C   -6.01448345829059     -0.59651723225129     -2.92355707632744
  H   -6.03376256179108      0.48749296460924     -2.77916152921443
  H   -6.07690993251266     -0.82650107512817     -3.98541553358170
  H   -6.85422119557995     -1.05584182922923     -2.39788924715499
  C   -0.43479814940332      3.01823787865086      2.43848886896884
  H   -1.28802905071177      3.22219334500144      3.08985238691730
  H   0.31421063529750      3.79470475812471      2.61585385567826
  O   1.74857599479788     -2.05318296623423      0.41653145110822
  O   0.79661259109076     -0.48976211025753     -0.72031152731796
  N   1.74621051949502     -0.97088513963452     -0.13254331456886
*


