50
Coordinates from ORCA-job CURCUMIN-OPT-FREQ-Reag-1-wB97XM-V-6-311+G-D-298-cont E -1468.537738929290
  C       2.042829      1.106421      1.258576
  H       1.761836      2.141701      1.431540
  C       1.305268      0.114726      1.809220
  H       1.565933     -0.933555      1.693875
  C       0.114112      0.346204      2.637719
  O      -0.415988     -0.584852      3.225830
  C       3.203166      0.925234      0.430263
  C       3.912121      2.016970     -0.034098
  C       3.635262     -0.451441      0.032054
  C       5.046062      1.880193     -0.832275
  H       3.577597      3.012575      0.239418
  C       4.908075     -0.528316     -0.738636
  H       3.659066     -1.153739      0.869316
  C       5.543506      0.594535     -1.178804
  H       5.569499      2.760681     -1.190807
  O       6.661168      0.443164     -1.939844
  H       7.042442      1.300968     -2.164049
  O       5.305886     -1.791580     -1.045738
  C       6.562847     -2.200105     -0.471667
  H       6.512263     -2.129179      0.617387
  H       6.704296     -3.236716     -0.768228
  H       7.377647     -1.585716     -0.853236
  C      -2.812924      0.679233      1.261490
  H      -2.557944      0.306133      2.250256
  C      -2.085980      1.676104      0.730942
  H      -2.302966      2.087247     -0.250832
  C      -0.952962      2.314323      1.414348
  O      -0.398528      3.284363      0.918645
  C      -3.954253      0.005835      0.636923
  C      -4.546968     -1.069998      1.302449
  C      -4.479223      0.392326     -0.605328
  C      -5.622639     -1.752123      0.746740
  H      -4.157334     -1.384293      2.265777
  C      -5.548883     -0.277793     -1.165001
  H      -4.062042      1.223833     -1.163655
  C      -6.128211     -1.365604     -0.489679
  H      -6.069807     -2.594283      1.267222
  O      -7.165938     -1.992671     -1.101114
  H      -7.489804     -2.721141     -0.556353
  O      -6.015259      0.089955     -2.404062
  C      -7.241728      0.830333     -2.351467
  H      -7.094913      1.763735     -1.800606
  H      -7.513762      1.051035     -3.381792
  H      -8.031406      0.241200     -1.880721
  C      -0.461916      1.754489      2.748182
  H      -1.281238      1.716536      3.468197
  H       0.297210      2.440701      3.129027
  O       2.118650     -2.177752     -0.601796
  O       2.177484     -0.422676     -1.850605
  N       2.531964     -1.074233     -0.890196
50
Coordinates from ORCA-job CURCUMIN-OPT-FREQ-Reag-1-wB97XM-V-6-311+G-D-298-cont E -1468.537742661320
  C       2.043160      1.107153      1.259577
  H       1.762048      2.142477      1.432132
  C       1.305628      0.115539      1.810343
  H       1.566287     -0.932739      1.694981
  C       0.114154      0.346768      2.638404
  O      -0.416829     -0.584658      3.225124
  C       3.203457      0.925705      0.431120
  C       3.912960      2.017176     -0.032962
  C       3.634700     -0.451155      0.032279
  C       5.046810      1.879957     -0.831200
  H       3.578943      3.012893      0.240755
  C       4.907509     -0.528473     -0.738325
  H       3.658181     -1.153895      0.869159
  C       5.543547      0.594152     -1.178132
  H       5.570766      2.760193     -1.189617
  O       6.660867      0.442284     -1.939636
  H       7.043501      1.299875     -2.162335
  O       5.304332     -1.791978     -1.045907
  C       6.562459     -2.200792     -0.474592
  H       6.514580     -2.128860      0.614517
  H       6.702464     -3.237759     -0.770608
  H       7.376734     -1.587314     -0.858692
  C      -2.813268      0.679634      1.262092
  H      -2.558399      0.306624      2.250928
  C      -2.086205      1.676381      0.731512
  H      -2.303013      2.087350     -0.250383
  C      -0.952922      2.314388      1.414640
  O      -0.398213      3.284164      0.918739
  C      -3.954317      0.005963      0.637361
  C      -4.547427     -1.069499      1.303147
  C      -4.478747      0.391770     -0.605329
  C      -5.622921     -1.751799      0.747350
  H      -4.158241     -1.383339      2.266810
  C      -5.548333     -0.278413     -1.165064
  H      -4.061299      1.222956     -1.163949
  C      -6.128023     -1.365850     -0.489449
  H      -6.070413     -2.593641      1.268069
  O      -7.165628     -1.993098     -1.100924
  H      -7.489388     -2.721593     -0.556128
  O      -6.014135      0.088839     -2.404460
  C      -7.240826      0.828922     -2.352960
  H      -7.094539      1.762623     -1.802471
  H      -7.512240      1.049044     -3.383574
  H      -8.030655      0.239805     -1.882457
  C      -0.462124      1.754941      2.748755
  H      -1.281570      1.716830      3.468611
  H       0.296758      2.441425      3.129554
  O       2.115839     -2.175367     -0.601667
  O       2.176739     -0.420136     -1.850167
  N       2.530825     -1.072487     -0.890164
