%chk=CURCUMIN-OPT-FREQ-TS-M06-2X-6-311G-D-298.chk
# opt=(calcfc,ts,noeigen) freq=noraman 6-311+g(d)
scrf=(smd,solvent=generic,read) m062x temperature=298.15

TS1 - reacao 1

0 2
 C                  2.14528400    1.55194000    0.14546500
 H                  1.88866800    2.42397200   -0.44947000
 C                  1.39764200    1.22860700    1.21160700
 H                  1.65210800    0.40576500    1.87464100
 C                  0.19422700    1.97628000    1.62860800
 O                 -0.35021500    1.71114400    2.68121500
 C                  3.36083300    0.87050800   -0.28786800
 C                  4.32594600    1.58538200   -0.99061500
 C                  3.70614700   -0.45030900    0.08479800
 C                  5.54871000    1.02493600   -1.34300800
 H                  4.11820200    2.61575000   -1.25669800
 C                  4.88719400   -1.07052100   -0.34370000
 H                  4.13990800   -0.05336900    1.82555000
 C                  5.83609800   -0.29948400   -1.02575900
 H                  6.27837100    1.61400400   -1.88946900
 O                  6.98265000   -0.92015500   -1.36871400
 H                  7.55639400   -0.32327600   -1.86855300
 O                  5.08476400   -2.38748300   -0.11404000
 C                  5.92590100   -2.65815600    1.01869200
 H                  5.47537400   -2.24855100    1.92561200
 H                  5.99132100   -3.74109200    1.09544700
 H                  6.91996300   -2.23550700    0.86309800
 C                 -2.73191100    1.32687400    0.36488500
 H                 -2.47021100    1.72699500    1.34120200
 C                 -1.98912400    1.66945500   -0.70117400
 H                 -2.20840300    1.29968700   -1.69829900
 C                 -0.82692100    2.56720400   -0.63402500
 O                 -0.24571300    2.90209900   -1.64878400
 C                 -3.89473300    0.44141500    0.37025800
 C                 -4.50705100    0.14541500    1.59144900
 C                 -4.42660900   -0.12896800   -0.79723400
 C                 -5.60644400   -0.70129400    1.65524900
 H                 -4.11217200    0.57610600    2.50563000
 C                 -5.52066800   -0.97022400   -0.74629100
 H                 -3.99322200    0.06827900   -1.77162900
 C                 -6.11697200   -1.26909500    0.49314300
 H                 -6.06637600   -0.93304000    2.61145900
 O                 -7.17133100   -2.11667100    0.48356700
 H                 -7.49668700   -2.25718800    1.38284900
 O                 -5.99295500   -1.54571100   -1.89043100
 C                 -7.22548900   -0.98882500   -2.34710000
 H                 -7.09518800    0.07028200   -2.58808100
 H                 -7.49914000   -1.53613500   -3.24755600
 H                 -8.01037500   -1.10434500   -1.59716100
 C                 -0.35163400    3.07751000    0.72622300
 H                 -1.17407800    3.55707800    1.25839000
 H                  0.42337600    3.82327100    0.54161000
 O                  2.77780100   -2.02622200    1.53172900
 O                  1.71720200   -1.54457800   -0.27293700
 N                  2.64028600   -1.41428300    0.49813700

