%chk=testeP1.chk
%Nproc=64
# opt=loose freq=noraman M062X/6-311g(d) scrf=(smd,solvent=generic,read) temperature=298.15 SCF=(qc,MaxCycle=10000)

Reagente 1

0 2
 C                  2.16714500    1.13124900    0.67669500
 H                  1.78790300    2.13065100    0.48257300
 C                  1.45249900    0.30772300    1.45518700
 H                  1.77916000   -0.69103500    1.72652200
 C                  0.15107000    0.67183700    2.05631200
 O                 -0.43431600   -0.12725100    2.75540900
 C                  3.46383400    0.87663100    0.04336300
 C                  4.25515600    1.97541000   -0.30803100
 C                  4.01957000   -0.37926300   -0.22005600
 C                  5.51607000    1.82389000   -0.86422200
 H                  3.86973800    2.97269800   -0.12894000
 C                  5.26669300   -0.57562900   -0.78550600
 H                  5.17756300   -1.65993300    4.70772200
 C                  6.03332000    0.55564800   -1.10791800
 H                  6.10500100    2.69775800   -1.12457900
 O                  7.23807200    0.33225900   -1.66729500
 H                  7.67369100    1.17129500   -1.86785100
 O                  5.68317600   -1.83075900   -1.07484100
 C                  6.70433800   -2.32369800   -0.19661100
 H                  6.33274400   -2.35050000    0.82965600
 H                  6.93000000   -3.33312700   -0.53286500
 H                  7.59980800   -1.70428800   -0.25979600
 C                 -2.94570300    0.79104000    0.81333200
 H                 -2.59430500    0.62310400    1.82842600
 C                 -2.21579200    1.56095000   -0.00930600
 H                 -2.50886100    1.74050800   -1.03919400
 C                 -0.96123100    2.22342300    0.37675600
 O                 -0.34676100    2.89640100   -0.42608900
 C                 -4.19655900    0.11110700    0.48431800
 C                 -4.78233400   -0.72073100    1.44166700
 C                 -4.84472600    0.26172600   -0.75263500
 C                 -5.96813600   -1.39388400    1.17685300
 H                 -4.29923900   -0.84979100    2.40440500
 C                 -6.02139800   -0.40404800   -1.02818000
 H                 -4.43826500    0.89908700   -1.53036900
 C                 -6.59525800   -1.24444800   -0.05490000
 H                 -6.40990000   -2.04470400    1.92561800
 O                 -7.74399200   -1.87498200   -0.38450200
 H                 -8.04176100   -2.42267700    0.35334800
 O                 -6.61260000   -0.27166100   -2.25124300
 C                 -7.78407300    0.54307900   -2.23277500
 H                 -7.53557500    1.55970300   -1.91395600
 H                 -8.16331900    0.56455800   -3.25300400
 H                 -8.54444700    0.12422100   -1.57069900
 C                 -0.43527300    2.05596500    1.80207900
 H                 -1.23529200    2.20372300    2.52724200
 H                  0.32074900    2.82518700    1.95892600
 O                  3.62967500   -2.32824400    0.93708100
 O                  2.30475500   -1.82657900   -0.68257000
 N                  3.25361100   -1.61396500    0.03295500

Eps=7
EpsInf=1.85341
HbondAcidity=0
HbondBasicity=0.48
SurfaceTensionAtInterface=60.62
CarbonAromaticity=0
ElectronegativeHalogenicity=0

